
OS:Version,
  {0b3f151b-deff-4256-bf29-da0c5793f9e9}, ! Handle
  0.9.3;                                  ! Version Identifier

OS:SizingPeriod:DesignDay,
  {c3b898a9-5ce0-4711-8a5f-fef959210316}, ! Handle
  Massena Ann Clg 1% Condns WB=>MDB,      ! Name
  27.4,                                   ! Maximum Dry-Bulb Temperature {C}
  11.7,                                   ! Daily Dry-Bulb Temperature Range {deltaC}
  22.9,                                   ! Humidity Indicating Conditions at Maximum Dry-Bulb {BasedOnField A3}
  100547,                                 ! Barometric Pressure {Pa}
  4.7,                                    ! Wind Speed {m/s}
  240,                                    ! Wind Direction {deg}
  0,                                      ! Sky Clearness
  0,                                      ! Rain Indicator
  0,                                      ! Snow Indicator
  21,                                     ! Day of Month
  7,                                      ! Month
  SummerDesignDay,                        ! Day Type
  0,                                      ! Daylight Saving Time Indicator
  Wetbulb,                                ! Humidity Indicating Type
  ,                                       ! Humidity Indicating Day Schedule Name
  DefaultMultipliers,                     ! Dry-Bulb Temperature Range Modifier Type
  ,                                       ! Dry-Bulb Temperature Range Modifier Schedule Name
  ASHRAETau,                              ! Solar Model Indicator
  ,                                       ! Beam Solar Day Schedule Name
  ,                                       ! Diffuse Solar Day Schedule Name
  0.454,                                  ! ASHRAE Taub {dimensionless}
  2.024;                                  ! ASHRAE Taud {dimensionless}

