
OS:Version,
  {0adbd59f-e921-425f-83cf-86c8a8505b50}, ! Handle
  0.9.3;                                  ! Version Identifier

OS:SizingPeriod:DesignDay,
  {4a822608-0277-4b56-afbb-ae753249047d}, ! Handle
  RAPID_CITY Ann Clg 1% Condns Enth=>MDB, ! Name
  29.2,                                   ! Maximum Dry-Bulb Temperature {C}
  14.8,                                   ! Daily Dry-Bulb Temperature Range {deltaC}
  64100,                                  ! Humidity Indicating Conditions at Maximum Dry-Bulb {BasedOnField A3}
  90246,                                  ! Barometric Pressure {Pa}
  6,                                      ! Wind Speed {m/s}
  180,                                    ! Wind Direction {deg}
  0,                                      ! Sky Clearness
  0,                                      ! Rain Indicator
  0,                                      ! Snow Indicator
  21,                                     ! Day of Month
  7,                                      ! Month
  SummerDesignDay,                        ! Day Type
  0,                                      ! Daylight Saving Time Indicator
  Enthalpy,                               ! Humidity Indicating Type
  ,                                       ! Humidity Indicating Day Schedule Name
  DefaultMultipliers,                     ! Dry-Bulb Temperature Range Modifier Type
  ,                                       ! Dry-Bulb Temperature Range Modifier Schedule Name
  ASHRAETau,                              ! Solar Model Indicator
  ,                                       ! Beam Solar Day Schedule Name
  ,                                       ! Diffuse Solar Day Schedule Name
  0.41,                                   ! ASHRAE Taub {dimensionless}
  2.134;                                  ! ASHRAE Taud {dimensionless}

OS:ComponentData,
  {41ae3892-1b2d-4fc7-903c-635da1271619}, ! Handle
  Component Data 1,                       ! Name
  {68e44ef9-a6f1-499b-8cca-84c1960e11fb}, ! UUID
  {5a0ff3ec-dd48-4fce-b8f3-f90bd34de3bf}, ! Version UUID
  1366310442,                             ! Creation Timestamp
  1366310442,                             ! Version Timestamp
  {4a822608-0277-4b56-afbb-ae753249047d}; ! Name of Object 1

