
OS:Version,
  {5579b5c6-9953-40cf-b2b7-6639faa8f0ea}, ! Handle
  0.9.3;                                  ! Version Identifier

OS:SizingPeriod:DesignDay,
  {a62e07be-7ae5-4f8f-b6f4-2c554da6a16c}, ! Handle
  Sturgeon Bay Ann Clg .4% Condns WB=>MDB, ! Name
  27.7,                                   ! Maximum Dry-Bulb Temperature {C}
  9.2,                                    ! Daily Dry-Bulb Temperature Range {deltaC}
  23.2,                                   ! Humidity Indicating Conditions at Maximum Dry-Bulb {BasedOnField A3}
  98698,                                  ! Barometric Pressure {Pa}
  5.1,                                    ! Wind Speed {m/s}
  240,                                    ! Wind Direction {deg}
  0,                                      ! Sky Clearness
  0,                                      ! Rain Indicator
  0,                                      ! Snow Indicator
  21,                                     ! Day of Month
  7,                                      ! Month
  SummerDesignDay,                        ! Day Type
  0,                                      ! Daylight Saving Time Indicator
  Wetbulb,                                ! Humidity Indicating Type
  ,                                       ! Humidity Indicating Day Schedule Name
  DefaultMultipliers,                     ! Dry-Bulb Temperature Range Modifier Type
  ,                                       ! Dry-Bulb Temperature Range Modifier Schedule Name
  ASHRAETau,                              ! Solar Model Indicator
  ,                                       ! Beam Solar Day Schedule Name
  ,                                       ! Diffuse Solar Day Schedule Name
  0.426,                                  ! ASHRAE Taub {dimensionless}
  2.148;                                  ! ASHRAE Taud {dimensionless}

OS:ComponentData,
  {d8292006-54b3-47d8-8b4a-10c0f03dfed1}, ! Handle
  Component Data 1,                       ! Name
  {cde691bd-7728-497f-9a2d-9b15dae75f2b}, ! UUID
  {ef2c5e8f-eb3c-442d-81d0-0a1a25f40742}, ! Version UUID
  1366311586,                             ! Creation Timestamp
  1366311586,                             ! Version Timestamp
  {a62e07be-7ae5-4f8f-b6f4-2c554da6a16c}; ! Name of Object 1

