
OS:Version,
  {09d76d7b-df90-49ba-bc70-eee66541de34}, ! Handle
  0.9.3;                                  ! Version Identifier

OS:SizingPeriod:DesignDay,
  {30ef3e59-5b28-49de-9f46-542a59b564a3}, ! Handle
  SOUTH_BEND Ann Clg 2% Condns WB=>MDB,   ! Name
  27.7,                                   ! Maximum Dry-Bulb Temperature {C}
  10.4,                                   ! Daily Dry-Bulb Temperature Range {deltaC}
  23.4,                                   ! Humidity Indicating Conditions at Maximum Dry-Bulb {BasedOnField A3}
  98522,                                  ! Barometric Pressure {Pa}
  5.2,                                    ! Wind Speed {m/s}
  220,                                    ! Wind Direction {deg}
  0,                                      ! Sky Clearness
  0,                                      ! Rain Indicator
  0,                                      ! Snow Indicator
  21,                                     ! Day of Month
  7,                                      ! Month
  SummerDesignDay,                        ! Day Type
  0,                                      ! Daylight Saving Time Indicator
  Wetbulb,                                ! Humidity Indicating Type
  ,                                       ! Humidity Indicating Day Schedule Name
  DefaultMultipliers,                     ! Dry-Bulb Temperature Range Modifier Type
  ,                                       ! Dry-Bulb Temperature Range Modifier Schedule Name
  ASHRAETau,                              ! Solar Model Indicator
  ,                                       ! Beam Solar Day Schedule Name
  ,                                       ! Diffuse Solar Day Schedule Name
  0.433,                                  ! ASHRAE Taub {dimensionless}
  2.144;                                  ! ASHRAE Taud {dimensionless}

OS:ComponentData,
  {5672daa6-d573-476b-af76-5fc77efda306}, ! Handle
  Component Data 1,                       ! Name
  {1785ac6b-0796-4fb0-afcd-c227e82ecb30}, ! UUID
  {9b754932-3426-4870-ac28-d764fd434636}, ! Version UUID
  1366307488,                             ! Creation Timestamp
  1366307488,                             ! Version Timestamp
  {30ef3e59-5b28-49de-9f46-542a59b564a3}; ! Name of Object 1

