
OS:Version,
  {4054ddce-d235-4d50-a66d-628c07797d00}, ! Handle
  0.9.3;                                  ! Version Identifier

OS:SizingPeriod:DesignDay,
  {a0f3e56f-414f-4c34-abce-a5727e137983}, ! Handle
  PROVIDENCE Ann Clg .4% Condns WB=>MDB,  ! Name
  29.6,                                   ! Maximum Dry-Bulb Temperature {C}
  9.6,                                    ! Daily Dry-Bulb Temperature Range {deltaC}
  24.7,                                   ! Humidity Indicating Conditions at Maximum Dry-Bulb {BasedOnField A3}
  101097,                                 ! Barometric Pressure {Pa}
  5.5,                                    ! Wind Speed {m/s}
  280,                                    ! Wind Direction {deg}
  0,                                      ! Sky Clearness
  0,                                      ! Rain Indicator
  0,                                      ! Snow Indicator
  21,                                     ! Day of Month
  7,                                      ! Month
  SummerDesignDay,                        ! Day Type
  0,                                      ! Daylight Saving Time Indicator
  Wetbulb,                                ! Humidity Indicating Type
  ,                                       ! Humidity Indicating Day Schedule Name
  DefaultMultipliers,                     ! Dry-Bulb Temperature Range Modifier Type
  ,                                       ! Dry-Bulb Temperature Range Modifier Schedule Name
  ASHRAETau,                              ! Solar Model Indicator
  ,                                       ! Beam Solar Day Schedule Name
  ,                                       ! Diffuse Solar Day Schedule Name
  0.507,                                  ! ASHRAE Taub {dimensionless}
  1.885;                                  ! ASHRAE Taud {dimensionless}

OS:ComponentData,
  {95a3aab3-723d-4eff-9e79-6c4fc113ab31}, ! Handle
  Component Data 1,                       ! Name
  {123304d4-64fa-4b6e-8adb-0cafe9e3c93d}, ! UUID
  {97a0ee6e-70f0-4622-9385-c73c9e5d3561}, ! Version UUID
  1366310308,                             ! Creation Timestamp
  1366310308,                             ! Version Timestamp
  {a0f3e56f-414f-4c34-abce-a5727e137983}; ! Name of Object 1

