
OS:Version,
  {8fb39493-6482-440e-af9e-85292d8d3a73}, ! Handle
  0.9.3;                                  ! Version Identifier

OS:SizingPeriod:DesignDay,
  {3dafe1eb-4967-4b41-a70f-e5d64c272513}, ! Handle
  Rock Springs Arpt  Green Rive Ann Hum_n 99.6% Condns DP=>MCDB, ! Name
  -20.9,                                  ! Maximum Dry-Bulb Temperature {C}
  0,                                      ! Daily Dry-Bulb Temperature Range {deltaC}
  -26.2,                                  ! Humidity Indicating Conditions at Maximum Dry-Bulb {BasedOnField A3}
  89875,                                  ! Barometric Pressure {Pa}
  3.6,                                    ! Wind Speed {m/s}
  70,                                     ! Wind Direction {deg}
  0,                                      ! Sky Clearness
  0,                                      ! Rain Indicator
  0,                                      ! Snow Indicator
  21,                                     ! Day of Month
  12,                                     ! Month
  WinterDesignDay,                        ! Day Type
  0,                                      ! Daylight Saving Time Indicator
  Dewpoint,                               ! Humidity Indicating Type
  ,                                       ! Humidity Indicating Day Schedule Name
  DefaultMultipliers,                     ! Dry-Bulb Temperature Range Modifier Type
  ,                                       ! Dry-Bulb Temperature Range Modifier Schedule Name
  ASHRAEClearSky;                         ! Solar Model Indicator

OS:ComponentData,
  {4173cfbd-ed99-4085-acf0-126bdcc48ad8}, ! Handle
  Component Data 1,                       ! Name
  {168cc55e-36c9-4a27-88eb-db2655bf439e}, ! UUID
  {64c40ebe-f9af-47b2-acb1-9a27232a14ca}, ! Version UUID
  1366311738,                             ! Creation Timestamp
  1366311738,                             ! Version Timestamp
  {3dafe1eb-4967-4b41-a70f-e5d64c272513}; ! Name of Object 1

