
OS:Version,
  {05de95a2-9894-4322-a0fe-99c2e18e8a01}, ! Handle
  0.9.3;                                  ! Version Identifier

OS:SizingPeriod:DesignDay,
  {5aef59ba-62e0-4b0d-9b6e-a3b69c0c0b87}, ! Handle
  Topeka Municipal Ap Ann Hum_n 99% Condns DP=>MCDB, ! Name
  -13,                                    ! Maximum Dry-Bulb Temperature {C}
  0,                                      ! Daily Dry-Bulb Temperature Range {deltaC}
  -19.3,                                  ! Humidity Indicating Conditions at Maximum Dry-Bulb {BasedOnField A3}
  98135,                                  ! Barometric Pressure {Pa}
  3.6,                                    ! Wind Speed {m/s}
  320,                                    ! Wind Direction {deg}
  0,                                      ! Sky Clearness
  0,                                      ! Rain Indicator
  0,                                      ! Snow Indicator
  21,                                     ! Day of Month
  1,                                      ! Month
  WinterDesignDay,                        ! Day Type
  0,                                      ! Daylight Saving Time Indicator
  Dewpoint,                               ! Humidity Indicating Type
  ,                                       ! Humidity Indicating Day Schedule Name
  DefaultMultipliers,                     ! Dry-Bulb Temperature Range Modifier Type
  ,                                       ! Dry-Bulb Temperature Range Modifier Schedule Name
  ASHRAEClearSky;                         ! Solar Model Indicator

OS:ComponentData,
  {ea1a5200-13ca-4404-a2fc-92339dd325b0}, ! Handle
  Component Data 1,                       ! Name
  {4929bb8e-1980-4406-a379-f33338a8e7f5}, ! UUID
  {3074f251-5f3a-49be-9a9f-ae784859c4e6}, ! Version UUID
  1366307587,                             ! Creation Timestamp
  1366307587,                             ! Version Timestamp
  {5aef59ba-62e0-4b0d-9b6e-a3b69c0c0b87}; ! Name of Object 1

