
OS:Version,
  {6027faf8-3307-44ff-8d2a-4ec04c35588b}, ! Handle
  0.9.3;                                  ! Version Identifier

OS:SizingPeriod:DesignDay,
  {c74b153c-267e-4fbf-8d80-672c979a0392}, ! Handle
  Point Hope  Awos Ann Hum_n 99% Condns DP=>MCDB, ! Name
  -26.7,                                  ! Maximum Dry-Bulb Temperature {C}
  0,                                      ! Daily Dry-Bulb Temperature Range {deltaC}
  -33.8,                                  ! Humidity Indicating Conditions at Maximum Dry-Bulb {BasedOnField A3}
  101277,                                 ! Barometric Pressure {Pa}
  3.7,                                    ! Wind Speed {m/s}
  320,                                    ! Wind Direction {deg}
  0,                                      ! Sky Clearness
  0,                                      ! Rain Indicator
  0,                                      ! Snow Indicator
  21,                                     ! Day of Month
  1,                                      ! Month
  WinterDesignDay,                        ! Day Type
  0,                                      ! Daylight Saving Time Indicator
  Dewpoint,                               ! Humidity Indicating Type
  ,                                       ! Humidity Indicating Day Schedule Name
  DefaultMultipliers,                     ! Dry-Bulb Temperature Range Modifier Type
  ,                                       ! Dry-Bulb Temperature Range Modifier Schedule Name
  ASHRAEClearSky;                         ! Solar Model Indicator

OS:ComponentData,
  {f04a5cb6-9de0-447d-9a9a-ebf054e195f1}, ! Handle
  Component Data 1,                       ! Name
  {575c981d-e56c-44af-b43e-62c0387e9dec}, ! UUID
  {51e5ccf4-636a-414e-8f5f-8b7e35d6a9d5}, ! Version UUID
  1366305491,                             ! Creation Timestamp
  1366305491,                             ! Version Timestamp
  {c74b153c-267e-4fbf-8d80-672c979a0392}; ! Name of Object 1

