
OS:Version,
  {1f09f71c-a9e0-4a6a-b0f7-e8b4027bb1d4}, ! Handle
  0.9.3;                                  ! Version Identifier

OS:SizingPeriod:DesignDay,
  {681960c9-723c-4c9f-9445-19982bc995d0}, ! Handle
  Trinidad Las Animas County Ap Ann Clg 2% Condns Enth=>MDB, ! Name
  26.7,                                   ! Maximum Dry-Bulb Temperature {C}
  15.6,                                   ! Daily Dry-Bulb Temperature Range {deltaC}
  54000,                                  ! Humidity Indicating Conditions at Maximum Dry-Bulb {BasedOnField A3}
  81984,                                  ! Barometric Pressure {Pa}
  4.7,                                    ! Wind Speed {m/s}
  180,                                    ! Wind Direction {deg}
  0,                                      ! Sky Clearness
  0,                                      ! Rain Indicator
  0,                                      ! Snow Indicator
  21,                                     ! Day of Month
  7,                                      ! Month
  SummerDesignDay,                        ! Day Type
  0,                                      ! Daylight Saving Time Indicator
  Enthalpy,                               ! Humidity Indicating Type
  ,                                       ! Humidity Indicating Day Schedule Name
  DefaultMultipliers,                     ! Dry-Bulb Temperature Range Modifier Type
  ,                                       ! Dry-Bulb Temperature Range Modifier Schedule Name
  ASHRAETau,                              ! Solar Model Indicator
  ,                                       ! Beam Solar Day Schedule Name
  ,                                       ! Diffuse Solar Day Schedule Name
  0.396,                                  ! ASHRAE Taub {dimensionless}
  2.111;                                  ! ASHRAE Taud {dimensionless}

OS:ComponentData,
  {09b9b70f-942a-497e-a145-dd4731e0e52a}, ! Handle
  Component Data 1,                       ! Name
  {851a3d23-2fa5-44d4-8c82-3b7d66edf197}, ! UUID
  {caaee0c7-2750-441f-80c1-3e357aef19a9}, ! Version UUID
  1366306744,                             ! Creation Timestamp
  1366306744,                             ! Version Timestamp
  {681960c9-723c-4c9f-9445-19982bc995d0}; ! Name of Object 1

