
OS:Version,
  {7c2adc95-80f3-416f-8c53-198dd922b3a7}, ! Handle
  0.9.3;                                  ! Version Identifier

OS:SizingPeriod:DesignDay,
  {1cde5e8c-5339-4573-96ba-2635092cf47e}, ! Handle
  Natchez Hardy Awos Ann Htg Wind 99.6% Condns WS=>MCDB, ! Name
  14.3,                                   ! Maximum Dry-Bulb Temperature {C}
  0,                                      ! Daily Dry-Bulb Temperature Range {deltaC}
  14.3,                                   ! Humidity Indicating Conditions at Maximum Dry-Bulb {BasedOnField A3}
  100332,                                 ! Barometric Pressure {Pa}
  10,                                     ! Wind Speed {m/s}
  10,                                     ! Wind Direction {deg}
  0,                                      ! Sky Clearness
  0,                                      ! Rain Indicator
  0,                                      ! Snow Indicator
  21,                                     ! Day of Month
  1,                                      ! Month
  WinterDesignDay,                        ! Day Type
  0,                                      ! Daylight Saving Time Indicator
  Wetbulb,                                ! Humidity Indicating Type
  ,                                       ! Humidity Indicating Day Schedule Name
  DefaultMultipliers,                     ! Dry-Bulb Temperature Range Modifier Type
  ,                                       ! Dry-Bulb Temperature Range Modifier Schedule Name
  ASHRAEClearSky;                         ! Solar Model Indicator

OS:ComponentData,
  {eade27de-d7b9-4818-8b5c-f47127d08d9d}, ! Handle
  Component Data 1,                       ! Name
  {ac3fc795-31f9-4729-a1ca-5c04e5e044ad}, ! UUID
  {bd12cbbd-537f-4065-bf58-5e3f04212b26}, ! Version UUID
  1366308684,                             ! Creation Timestamp
  1366308684,                             ! Version Timestamp
  {1cde5e8c-5339-4573-96ba-2635092cf47e}; ! Name of Object 1

