
OS:Version,
  {56dbe10d-3a42-4c9f-94c0-d99ca804635c}, ! Handle
  0.9.3;                                  ! Version Identifier

OS:SizingPeriod:DesignDay,
  {85782895-5418-442f-872a-e5bbb6689789}, ! Handle
  West Palm Beach Ann Clg 1% Condns Enth=>MDB, ! Name
  30.5,                                   ! Maximum Dry-Bulb Temperature {C}
  7.3,                                    ! Daily Dry-Bulb Temperature Range {deltaC}
  81500,                                  ! Humidity Indicating Conditions at Maximum Dry-Bulb {BasedOnField A3}
  101253,                                 ! Barometric Pressure {Pa}
  5.2,                                    ! Wind Speed {m/s}
  130,                                    ! Wind Direction {deg}
  0,                                      ! Sky Clearness
  0,                                      ! Rain Indicator
  0,                                      ! Snow Indicator
  21,                                     ! Day of Month
  8,                                      ! Month
  SummerDesignDay,                        ! Day Type
  0,                                      ! Daylight Saving Time Indicator
  Enthalpy,                               ! Humidity Indicating Type
  ,                                       ! Humidity Indicating Day Schedule Name
  DefaultMultipliers,                     ! Dry-Bulb Temperature Range Modifier Type
  ,                                       ! Dry-Bulb Temperature Range Modifier Schedule Name
  ASHRAETau,                              ! Solar Model Indicator
  ,                                       ! Beam Solar Day Schedule Name
  ,                                       ! Diffuse Solar Day Schedule Name
  0.497,                                  ! ASHRAE Taub {dimensionless}
  2.018;                                  ! ASHRAE Taud {dimensionless}

OS:ComponentData,
  {091e0eec-8edc-4b2b-803e-3e7bbffe08bc}, ! Handle
  Component Data 1,                       ! Name
  {9e6a2fd3-411f-4952-9e01-142884faab64}, ! UUID
  {c1169815-8e81-4b1c-b6b2-d54bba1f7480}, ! Version UUID
  1366306952,                             ! Creation Timestamp
  1366306952,                             ! Version Timestamp
  {85782895-5418-442f-872a-e5bbb6689789}; ! Name of Object 1

