
OS:Version,
  {001c9134-a08f-430c-a19c-8a24aea330ce}, ! Handle
  0.9.3;                                  ! Version Identifier

OS:SizingPeriod:DesignDay,
  {cbc1aafe-c15f-4bf9-9bde-38ab758069af}, ! Handle
  Oklahoma City Will Rogers Wor Ann Clg 1% Condns DB=>MWB, ! Name
  36,                                     ! Maximum Dry-Bulb Temperature {C}
  11.7,                                   ! Daily Dry-Bulb Temperature Range {deltaC}
  23.4,                                   ! Humidity Indicating Conditions at Maximum Dry-Bulb {BasedOnField A3}
  96634,                                  ! Barometric Pressure {Pa}
  5.5,                                    ! Wind Speed {m/s}
  170,                                    ! Wind Direction {deg}
  0,                                      ! Sky Clearness
  0,                                      ! Rain Indicator
  0,                                      ! Snow Indicator
  21,                                     ! Day of Month
  7,                                      ! Month
  SummerDesignDay,                        ! Day Type
  0,                                      ! Daylight Saving Time Indicator
  Wetbulb,                                ! Humidity Indicating Type
  ,                                       ! Humidity Indicating Day Schedule Name
  DefaultMultipliers,                     ! Dry-Bulb Temperature Range Modifier Type
  ,                                       ! Dry-Bulb Temperature Range Modifier Schedule Name
  ASHRAETau,                              ! Solar Model Indicator
  ,                                       ! Beam Solar Day Schedule Name
  ,                                       ! Diffuse Solar Day Schedule Name
  0.426,                                  ! ASHRAE Taub {dimensionless}
  2.214;                                  ! ASHRAE Taud {dimensionless}

OS:ComponentData,
  {8f531d69-37af-4b74-882d-4b7bb89ed3f8}, ! Handle
  Component Data 1,                       ! Name
  {2f4b1c1c-06a4-452e-8e1e-a233844ee23c}, ! UUID
  {6e5af6cc-6bb9-4ad5-a138-deb563e0f274}, ! Version UUID
  1366309927,                             ! Creation Timestamp
  1366309927,                             ! Version Timestamp
  {cbc1aafe-c15f-4bf9-9bde-38ab758069af}; ! Name of Object 1

