
OS:Version,
  {d6da75c2-e2d1-49bf-9a99-2be2fd18f756}, ! Handle
  0.9.3;                                  ! Version Identifier

OS:SizingPeriod:DesignDay,
  {cdafd207-a531-44f8-b16a-46e76ebab9a5}, ! Handle
  SPOKANE Ann Clg 2% Condns DB=>MWB,      ! Name
  29.6,                                   ! Maximum Dry-Bulb Temperature {C}
  14.5,                                   ! Daily Dry-Bulb Temperature Range {deltaC}
  15.8,                                   ! Humidity Indicating Conditions at Maximum Dry-Bulb {BasedOnField A3}
  92958,                                  ! Barometric Pressure {Pa}
  3.4,                                    ! Wind Speed {m/s}
  240,                                    ! Wind Direction {deg}
  0,                                      ! Sky Clearness
  0,                                      ! Rain Indicator
  0,                                      ! Snow Indicator
  21,                                     ! Day of Month
  7,                                      ! Month
  SummerDesignDay,                        ! Day Type
  0,                                      ! Daylight Saving Time Indicator
  Wetbulb,                                ! Humidity Indicating Type
  ,                                       ! Humidity Indicating Day Schedule Name
  DefaultMultipliers,                     ! Dry-Bulb Temperature Range Modifier Type
  ,                                       ! Dry-Bulb Temperature Range Modifier Schedule Name
  ASHRAETau,                              ! Solar Model Indicator
  ,                                       ! Beam Solar Day Schedule Name
  ,                                       ! Diffuse Solar Day Schedule Name
  0.353,                                  ! ASHRAE Taub {dimensionless}
  2.387;                                  ! ASHRAE Taud {dimensionless}

OS:ComponentData,
  {7645e80f-2957-400e-a388-952a37f704f4}, ! Handle
  Component Data 1,                       ! Name
  {77c76e6b-66c5-4ea7-9162-1f1a90339ab6}, ! UUID
  {6568ce6f-1322-441d-961d-2b2dc6c6e378}, ! Version UUID
  1366311384,                             ! Creation Timestamp
  1366311384,                             ! Version Timestamp
  {cdafd207-a531-44f8-b16a-46e76ebab9a5}; ! Name of Object 1

