
OS:Version,
  {848f0844-c01f-467d-8a60-e687fa4bbdff}, ! Handle
  0.9.3;                                  ! Version Identifier

OS:SizingPeriod:DesignDay,
  {caaa1839-7c0e-43c9-b13e-375c67200791}, ! Handle
  Pueblo Ann Clg .4% Condns WB=>MDB,      ! Name
  29.5,                                   ! Maximum Dry-Bulb Temperature {C}
  18,                                     ! Daily Dry-Bulb Temperature Range {deltaC}
  19.6,                                   ! Humidity Indicating Conditions at Maximum Dry-Bulb {BasedOnField A3}
  85191,                                  ! Barometric Pressure {Pa}
  5.1,                                    ! Wind Speed {m/s}
  120,                                    ! Wind Direction {deg}
  0,                                      ! Sky Clearness
  0,                                      ! Rain Indicator
  0,                                      ! Snow Indicator
  21,                                     ! Day of Month
  7,                                      ! Month
  SummerDesignDay,                        ! Day Type
  0,                                      ! Daylight Saving Time Indicator
  Wetbulb,                                ! Humidity Indicating Type
  ,                                       ! Humidity Indicating Day Schedule Name
  DefaultMultipliers,                     ! Dry-Bulb Temperature Range Modifier Type
  ,                                       ! Dry-Bulb Temperature Range Modifier Schedule Name
  ASHRAETau,                              ! Solar Model Indicator
  ,                                       ! Beam Solar Day Schedule Name
  ,                                       ! Diffuse Solar Day Schedule Name
  0.435,                                  ! ASHRAE Taub {dimensionless}
  1.969;                                  ! ASHRAE Taud {dimensionless}

OS:ComponentData,
  {65552b55-ace8-4496-9ba7-d9b421f9973c}, ! Handle
  Component Data 1,                       ! Name
  {e8f14140-ab87-4306-86f4-e3aa28e06c74}, ! UUID
  {0a122f90-c4e0-428d-94da-0e6c6687178c}, ! Version UUID
  1366306729,                             ! Creation Timestamp
  1366306729,                             ! Version Timestamp
  {caaa1839-7c0e-43c9-b13e-375c67200791}; ! Name of Object 1

