
OS:Version,
  {3ce7d555-35f5-4233-8a84-7a24fdba49e2}, ! Handle
  0.9.3;                                  ! Version Identifier

OS:SizingPeriod:DesignDay,
  {0548d5db-2793-4776-a91a-aec308d89bfd}, ! Handle
  North Bend Muni Airport Ann Clg 2% Condns DB=>MWB, ! Name
  19.6,                                   ! Maximum Dry-Bulb Temperature {C}
  7.3,                                    ! Daily Dry-Bulb Temperature Range {deltaC}
  15,                                     ! Humidity Indicating Conditions at Maximum Dry-Bulb {BasedOnField A3}
  101301,                                 ! Barometric Pressure {Pa}
  6.1,                                    ! Wind Speed {m/s}
  330,                                    ! Wind Direction {deg}
  0,                                      ! Sky Clearness
  0,                                      ! Rain Indicator
  0,                                      ! Snow Indicator
  21,                                     ! Day of Month
  8,                                      ! Month
  SummerDesignDay,                        ! Day Type
  0,                                      ! Daylight Saving Time Indicator
  Wetbulb,                                ! Humidity Indicating Type
  ,                                       ! Humidity Indicating Day Schedule Name
  DefaultMultipliers,                     ! Dry-Bulb Temperature Range Modifier Type
  ,                                       ! Dry-Bulb Temperature Range Modifier Schedule Name
  ASHRAETau,                              ! Solar Model Indicator
  ,                                       ! Beam Solar Day Schedule Name
  ,                                       ! Diffuse Solar Day Schedule Name
  0.348,                                  ! ASHRAE Taub {dimensionless}
  2.638;                                  ! ASHRAE Taud {dimensionless}

OS:ComponentData,
  {3b1fdb23-bbc1-46ae-8b51-af27b829494c}, ! Handle
  Component Data 1,                       ! Name
  {94ab73bd-7a9f-40ee-a69d-c92abf3aab0b}, ! UUID
  {035b1b09-1534-4806-acfe-3376e218267f}, ! Version UUID
  1366310054,                             ! Creation Timestamp
  1366310054,                             ! Version Timestamp
  {0548d5db-2793-4776-a91a-aec308d89bfd}; ! Name of Object 1

