
OS:Version,
  {dc6cd6bc-15df-43fe-9fce-7b4120e0a3b6}, ! Handle
  0.9.3;                                  ! Version Identifier

OS:SizingPeriod:DesignDay,
  {956416fd-4e91-46e2-b8d8-31333f77f026}, ! Handle
  Walla Walla City County Ap Ann Htg Wind 99.6% Condns WS=>MCDB, ! Name
  10.4,                                   ! Maximum Dry-Bulb Temperature {C}
  0,                                      ! Daily Dry-Bulb Temperature Range {deltaC}
  10.4,                                   ! Humidity Indicating Conditions at Maximum Dry-Bulb {BasedOnField A3}
  97132,                                  ! Barometric Pressure {Pa}
  13.8,                                   ! Wind Speed {m/s}
  180,                                    ! Wind Direction {deg}
  0,                                      ! Sky Clearness
  0,                                      ! Rain Indicator
  0,                                      ! Snow Indicator
  21,                                     ! Day of Month
  12,                                     ! Month
  WinterDesignDay,                        ! Day Type
  0,                                      ! Daylight Saving Time Indicator
  Wetbulb,                                ! Humidity Indicating Type
  ,                                       ! Humidity Indicating Day Schedule Name
  DefaultMultipliers,                     ! Dry-Bulb Temperature Range Modifier Type
  ,                                       ! Dry-Bulb Temperature Range Modifier Schedule Name
  ASHRAEClearSky;                         ! Solar Model Indicator

OS:ComponentData,
  {d98fd056-0749-4385-bcac-6a5dd81fde1e}, ! Handle
  Component Data 1,                       ! Name
  {b3685e0f-d0d4-4eae-9582-04f832350a46}, ! UUID
  {5e143823-c469-441c-8420-79bffbddbe94}, ! Version UUID
  1366311419,                             ! Creation Timestamp
  1366311419,                             ! Version Timestamp
  {956416fd-4e91-46e2-b8d8-31333f77f026}; ! Name of Object 1

