
OS:Version,
  {d8b6eca2-fc72-4a91-a6c1-aa89da31c221}, ! Handle
  0.9.3;                                  ! Version Identifier

OS:SizingPeriod:DesignDay,
  {25bf4247-be24-4e9e-ba60-4877893536b3}, ! Handle
  Raleigh/Durham Ann Htg Wind 99% Condns WS=>MCDB, ! Name
  8.8,                                    ! Maximum Dry-Bulb Temperature {C}
  0,                                      ! Daily Dry-Bulb Temperature Range {deltaC}
  8.8,                                    ! Humidity Indicating Conditions at Maximum Dry-Bulb {BasedOnField A3}
  99726,                                  ! Barometric Pressure {Pa}
  9.2,                                    ! Wind Speed {m/s}
  30,                                     ! Wind Direction {deg}
  0,                                      ! Sky Clearness
  0,                                      ! Rain Indicator
  0,                                      ! Snow Indicator
  21,                                     ! Day of Month
  1,                                      ! Month
  WinterDesignDay,                        ! Day Type
  0,                                      ! Daylight Saving Time Indicator
  Wetbulb,                                ! Humidity Indicating Type
  ,                                       ! Humidity Indicating Day Schedule Name
  DefaultMultipliers,                     ! Dry-Bulb Temperature Range Modifier Type
  ,                                       ! Dry-Bulb Temperature Range Modifier Schedule Name
  ASHRAEClearSky;                         ! Solar Model Indicator

