
OS:Version,
  {37bf8c73-a043-48e2-bd06-5302eac5d809}, ! Handle
  0.9.3;                                  ! Version Identifier

OS:SizingPeriod:DesignDay,
  {453a56f2-de1a-4009-8d77-2627251d05e8}, ! Handle
  Raleigh/Durham Ann Htg Wind 99% Condns WS=>MCDB, ! Name
  8.8,                                    ! Maximum Dry-Bulb Temperature {C}
  0,                                      ! Daily Dry-Bulb Temperature Range {deltaC}
  8.8,                                    ! Humidity Indicating Conditions at Maximum Dry-Bulb {BasedOnField A3}
  99726,                                  ! Barometric Pressure {Pa}
  9.2,                                    ! Wind Speed {m/s}
  30,                                     ! Wind Direction {deg}
  0,                                      ! Sky Clearness
  0,                                      ! Rain Indicator
  0,                                      ! Snow Indicator
  21,                                     ! Day of Month
  1,                                      ! Month
  WinterDesignDay,                        ! Day Type
  0,                                      ! Daylight Saving Time Indicator
  Wetbulb,                                ! Humidity Indicating Type
  ,                                       ! Humidity Indicating Day Schedule Name
  DefaultMultipliers,                     ! Dry-Bulb Temperature Range Modifier Type
  ,                                       ! Dry-Bulb Temperature Range Modifier Schedule Name
  ASHRAEClearSky;                         ! Solar Model Indicator

OS:ComponentData,
  {e721081c-e794-4a75-8188-cb7960e9af19}, ! Handle
  Component Data 1,                       ! Name
  {ad60f462-2e76-491e-bbff-1537c32ef1b4}, ! UUID
  {19582ae3-5136-411c-8a35-872e0a2ad5c6}, ! Version UUID
  1366308968,                             ! Creation Timestamp
  1366308968,                             ! Version Timestamp
  {453a56f2-de1a-4009-8d77-2627251d05e8}; ! Name of Object 1

