
OS:Version,
  {2937a915-94f1-46a6-89af-0f963665da5b}, ! Handle
  0.9.3;                                  ! Version Identifier

OS:SizingPeriod:DesignDay,
  {9e703dfb-584a-4d9e-bbf6-49096155f64b}, ! Handle
  Orlando Intl Arpt Ann Clg 2% Condns WB=>MDB, ! Name
  30.1,                                   ! Maximum Dry-Bulb Temperature {C}
  9.4,                                    ! Daily Dry-Bulb Temperature Range {deltaC}
  25.7,                                   ! Humidity Indicating Conditions at Maximum Dry-Bulb {BasedOnField A3}
  100977,                                 ! Barometric Pressure {Pa}
  3.7,                                    ! Wind Speed {m/s}
  290,                                    ! Wind Direction {deg}
  0,                                      ! Sky Clearness
  0,                                      ! Rain Indicator
  0,                                      ! Snow Indicator
  21,                                     ! Day of Month
  7,                                      ! Month
  SummerDesignDay,                        ! Day Type
  0,                                      ! Daylight Saving Time Indicator
  Wetbulb,                                ! Humidity Indicating Type
  ,                                       ! Humidity Indicating Day Schedule Name
  DefaultMultipliers,                     ! Dry-Bulb Temperature Range Modifier Type
  ,                                       ! Dry-Bulb Temperature Range Modifier Schedule Name
  ASHRAETau,                              ! Solar Model Indicator
  ,                                       ! Beam Solar Day Schedule Name
  ,                                       ! Diffuse Solar Day Schedule Name
  0.514,                                  ! ASHRAE Taub {dimensionless}
  1.928;                                  ! ASHRAE Taud {dimensionless}

OS:ComponentData,
  {5f5a788d-6bf2-45c8-a524-7637772e679d}, ! Handle
  Component Data 1,                       ! Name
  {11d3df06-3774-433e-860e-f73b01c19fa6}, ! UUID
  {523a00f0-97c6-4389-8f2e-03af4002b918}, ! Version UUID
  1366306896,                             ! Creation Timestamp
  1366306896,                             ! Version Timestamp
  {9e703dfb-584a-4d9e-bbf6-49096155f64b}; ! Name of Object 1

