
OS:Version,
  {2e9246f2-6341-49bd-937d-2798b5523f0e}, ! Handle
  0.9.3;                                  ! Version Identifier

OS:SizingPeriod:DesignDay,
  {d31bbac2-99a6-4b54-bbb5-6a17e574db56}, ! Handle
  Plymouth Municipal Ann Hum_n 99.6% Condns DP=>MCDB, ! Name
  -12.7,                                  ! Maximum Dry-Bulb Temperature {C}
  0,                                      ! Daily Dry-Bulb Temperature Range {deltaC}
  -23,                                    ! Humidity Indicating Conditions at Maximum Dry-Bulb {BasedOnField A3}
  100786,                                 ! Barometric Pressure {Pa}
  2.8,                                    ! Wind Speed {m/s}
  310,                                    ! Wind Direction {deg}
  0,                                      ! Sky Clearness
  0,                                      ! Rain Indicator
  0,                                      ! Snow Indicator
  21,                                     ! Day of Month
  1,                                      ! Month
  WinterDesignDay,                        ! Day Type
  0,                                      ! Daylight Saving Time Indicator
  Dewpoint,                               ! Humidity Indicating Type
  ,                                       ! Humidity Indicating Day Schedule Name
  DefaultMultipliers,                     ! Dry-Bulb Temperature Range Modifier Type
  ,                                       ! Dry-Bulb Temperature Range Modifier Schedule Name
  ASHRAEClearSky;                         ! Solar Model Indicator

OS:ComponentData,
  {e2936abc-a4c6-493f-be8c-b67bd4103896}, ! Handle
  Component Data 1,                       ! Name
  {626ef6ea-1d91-4759-a433-9957da37ce1f}, ! UUID
  {2045dee4-c5be-48fd-b14e-830ceb3c9070}, ! Version UUID
  1366307818,                             ! Creation Timestamp
  1366307818,                             ! Version Timestamp
  {d31bbac2-99a6-4b54-bbb5-6a17e574db56}; ! Name of Object 1

