
OS:Version,
  {244a50a3-72ac-4363-98ce-819249b668dd}, ! Handle
  0.9.3;                                  ! Version Identifier

OS:SizingPeriod:DesignDay,
  {c0e55ce8-9961-4cb7-a88b-2f76a5312af9}, ! Handle
  Meridian Key Field Ann Clg 2% Condns Enth=>MDB, ! Name
  31.1,                                   ! Maximum Dry-Bulb Temperature {C}
  11.4,                                   ! Daily Dry-Bulb Temperature Range {deltaC}
  78200,                                  ! Humidity Indicating Conditions at Maximum Dry-Bulb {BasedOnField A3}
  100248,                                 ! Barometric Pressure {Pa}
  3.2,                                    ! Wind Speed {m/s}
  0,                                      ! Wind Direction {deg}
  0,                                      ! Sky Clearness
  0,                                      ! Rain Indicator
  0,                                      ! Snow Indicator
  21,                                     ! Day of Month
  7,                                      ! Month
  SummerDesignDay,                        ! Day Type
  0,                                      ! Daylight Saving Time Indicator
  Enthalpy,                               ! Humidity Indicating Type
  ,                                       ! Humidity Indicating Day Schedule Name
  DefaultMultipliers,                     ! Dry-Bulb Temperature Range Modifier Type
  ,                                       ! Dry-Bulb Temperature Range Modifier Schedule Name
  ASHRAETau,                              ! Solar Model Indicator
  ,                                       ! Beam Solar Day Schedule Name
  ,                                       ! Diffuse Solar Day Schedule Name
  0.552,                                  ! ASHRAE Taub {dimensionless}
  1.818;                                  ! ASHRAE Taud {dimensionless}

OS:ComponentData,
  {57ff1b2e-4c7b-474f-8ba7-1efb58b7ce5a}, ! Handle
  Component Data 1,                       ! Name
  {b053baea-db33-4c38-9b99-6d5041934bdb}, ! UUID
  {ed048ad7-c570-4106-9212-e22ae182df5a}, ! Version UUID
  1366308669,                             ! Creation Timestamp
  1366308669,                             ! Version Timestamp
  {c0e55ce8-9961-4cb7-a88b-2f76a5312af9}; ! Name of Object 1

