
OS:Version,
  {d15481cf-6dc4-4c93-bdeb-9c5f3e802cfb}, ! Handle
  0.9.3;                                  ! Version Identifier

OS:SizingPeriod:DesignDay,
  {d247f6c5-39e3-42b0-8eb5-37fc10406adf}, ! Handle
  Muskegon County Arpt Ann Clg 1% Condns DB=>MWB, ! Name
  28.8,                                   ! Maximum Dry-Bulb Temperature {C}
  10,                                     ! Daily Dry-Bulb Temperature Range {deltaC}
  21.7,                                   ! Humidity Indicating Conditions at Maximum Dry-Bulb {BasedOnField A3}
  99063,                                  ! Barometric Pressure {Pa}
  5.4,                                    ! Wind Speed {m/s}
  200,                                    ! Wind Direction {deg}
  0,                                      ! Sky Clearness
  0,                                      ! Rain Indicator
  0,                                      ! Snow Indicator
  21,                                     ! Day of Month
  7,                                      ! Month
  SummerDesignDay,                        ! Day Type
  0,                                      ! Daylight Saving Time Indicator
  Wetbulb,                                ! Humidity Indicating Type
  ,                                       ! Humidity Indicating Day Schedule Name
  DefaultMultipliers,                     ! Dry-Bulb Temperature Range Modifier Type
  ,                                       ! Dry-Bulb Temperature Range Modifier Schedule Name
  ASHRAETau,                              ! Solar Model Indicator
  ,                                       ! Beam Solar Day Schedule Name
  ,                                       ! Diffuse Solar Day Schedule Name
  0.436,                                  ! ASHRAE Taub {dimensionless}
  2.131;                                  ! ASHRAE Taud {dimensionless}

OS:ComponentData,
  {9d2d37ed-97c3-424e-8af8-1652c39fbf07}, ! Handle
  Component Data 1,                       ! Name
  {f543dd2e-8f27-4069-8419-33fa2290ae81}, ! UUID
  {fb85d19b-113d-4fa6-8a69-5e634568d7c0}, ! Version UUID
  1366308075,                             ! Creation Timestamp
  1366308075,                             ! Version Timestamp
  {d247f6c5-39e3-42b0-8eb5-37fc10406adf}; ! Name of Object 1

