
OS:Version,
  {7cfaec37-3d24-4b1b-957f-dfb06bae9be4}, ! Handle
  0.9.3;                                  ! Version Identifier

OS:SizingPeriod:DesignDay,
  {cd39112d-d7ab-4d6f-b452-bd39945ce096}, ! Handle
  Oakland Metropolitan Arpt Ann Clg 2% Condns DP=>MDB, ! Name
  19.9,                                   ! Maximum Dry-Bulb Temperature {C}
  7.4,                                    ! Daily Dry-Bulb Temperature Range {deltaC}
  16.2,                                   ! Humidity Indicating Conditions at Maximum Dry-Bulb {BasedOnField A3}
  101301,                                 ! Barometric Pressure {Pa}
  4.9,                                    ! Wind Speed {m/s}
  290,                                    ! Wind Direction {deg}
  0,                                      ! Sky Clearness
  0,                                      ! Rain Indicator
  0,                                      ! Snow Indicator
  21,                                     ! Day of Month
  8,                                      ! Month
  SummerDesignDay,                        ! Day Type
  0,                                      ! Daylight Saving Time Indicator
  Dewpoint,                               ! Humidity Indicating Type
  ,                                       ! Humidity Indicating Day Schedule Name
  DefaultMultipliers,                     ! Dry-Bulb Temperature Range Modifier Type
  ,                                       ! Dry-Bulb Temperature Range Modifier Schedule Name
  ASHRAETau,                              ! Solar Model Indicator
  ,                                       ! Beam Solar Day Schedule Name
  ,                                       ! Diffuse Solar Day Schedule Name
  0.367,                                  ! ASHRAE Taub {dimensionless}
  2.428;                                  ! ASHRAE Taud {dimensionless}

