
OS:Version,
  {ec477dcf-5afd-47c1-883c-ec2ef359bba8}, ! Handle
  0.9.3;                                  ! Version Identifier

OS:SizingPeriod:DesignDay,
  {38a35459-11e1-4edd-b400-77d76a59e97e}, ! Handle
  Oakland Metropolitan Arpt Ann Clg 2% Condns DP=>MDB, ! Name
  19.9,                                   ! Maximum Dry-Bulb Temperature {C}
  7.4,                                    ! Daily Dry-Bulb Temperature Range {deltaC}
  16.2,                                   ! Humidity Indicating Conditions at Maximum Dry-Bulb {BasedOnField A3}
  101301,                                 ! Barometric Pressure {Pa}
  4.9,                                    ! Wind Speed {m/s}
  290,                                    ! Wind Direction {deg}
  0,                                      ! Sky Clearness
  0,                                      ! Rain Indicator
  0,                                      ! Snow Indicator
  21,                                     ! Day of Month
  8,                                      ! Month
  SummerDesignDay,                        ! Day Type
  0,                                      ! Daylight Saving Time Indicator
  Dewpoint,                               ! Humidity Indicating Type
  ,                                       ! Humidity Indicating Day Schedule Name
  DefaultMultipliers,                     ! Dry-Bulb Temperature Range Modifier Type
  ,                                       ! Dry-Bulb Temperature Range Modifier Schedule Name
  ASHRAETau,                              ! Solar Model Indicator
  ,                                       ! Beam Solar Day Schedule Name
  ,                                       ! Diffuse Solar Day Schedule Name
  0.367,                                  ! ASHRAE Taub {dimensionless}
  2.428;                                  ! ASHRAE Taud {dimensionless}

OS:ComponentData,
  {1d2df707-017c-4db1-9c36-368fb1546577}, ! Handle
  Component Data 1,                       ! Name
  {1b025ff8-643b-4536-bdaf-f88a8e60ba8e}, ! UUID
  {1b338f66-0b21-4393-bd4e-803ffdabb1b9}, ! Version UUID
  1366306524,                             ! Creation Timestamp
  1366306524,                             ! Version Timestamp
  {38a35459-11e1-4edd-b400-77d76a59e97e}; ! Name of Object 1

