
OS:Version,
  {f087ed39-6edc-4a89-9ec6-17b99465646d}, ! Handle
  0.9.3;                                  ! Version Identifier

OS:SizingPeriod:DesignDay,
  {726954f7-37a9-4b1c-9634-2bda281877fb}, ! Handle
  Norfolk International Ap Ann Clg 1% Condns DB=>MWB, ! Name
  32.9,                                   ! Maximum Dry-Bulb Temperature {C}
  8.1,                                    ! Daily Dry-Bulb Temperature Range {deltaC}
  24.4,                                   ! Humidity Indicating Conditions at Maximum Dry-Bulb {BasedOnField A3}
  101241,                                 ! Barometric Pressure {Pa}
  5,                                      ! Wind Speed {m/s}
  240,                                    ! Wind Direction {deg}
  0,                                      ! Sky Clearness
  0,                                      ! Rain Indicator
  0,                                      ! Snow Indicator
  21,                                     ! Day of Month
  7,                                      ! Month
  SummerDesignDay,                        ! Day Type
  0,                                      ! Daylight Saving Time Indicator
  Wetbulb,                                ! Humidity Indicating Type
  ,                                       ! Humidity Indicating Day Schedule Name
  DefaultMultipliers,                     ! Dry-Bulb Temperature Range Modifier Type
  ,                                       ! Dry-Bulb Temperature Range Modifier Schedule Name
  ASHRAETau,                              ! Solar Model Indicator
  ,                                       ! Beam Solar Day Schedule Name
  ,                                       ! Diffuse Solar Day Schedule Name
  0.59,                                   ! ASHRAE Taub {dimensionless}
  1.703;                                  ! ASHRAE Taud {dimensionless}

OS:ComponentData,
  {0a32128d-f661-4612-8b42-740074b977f7}, ! Handle
  Component Data 1,                       ! Name
  {4df2ada7-416b-404d-a4b2-bb843caaa61b}, ! UUID
  {9c91904d-9928-438d-953f-e0cbe5af736e}, ! Version UUID
  1366311134,                             ! Creation Timestamp
  1366311134,                             ! Version Timestamp
  {726954f7-37a9-4b1c-9634-2bda281877fb}; ! Name of Object 1

