
OS:Version,
  {fc741e8e-c458-447b-8a6b-4c5411feec8c}, ! Handle
  0.9.3;                                  ! Version Identifier

OS:SizingPeriod:DesignDay,
  {045c7977-22de-4f13-b172-d4be8e02cb82}, ! Handle
  Truth or Consequences Ann Clg .4% Condns WB=>MDB, ! Name
  29.5,                                   ! Maximum Dry-Bulb Temperature {C}
  13.9,                                   ! Daily Dry-Bulb Temperature Range {deltaC}
  19.4,                                   ! Humidity Indicating Conditions at Maximum Dry-Bulb {BasedOnField A3}
  84784,                                  ! Barometric Pressure {Pa}
  4.6,                                    ! Wind Speed {m/s}
  170,                                    ! Wind Direction {deg}
  0,                                      ! Sky Clearness
  0,                                      ! Rain Indicator
  0,                                      ! Snow Indicator
  21,                                     ! Day of Month
  7,                                      ! Month
  SummerDesignDay,                        ! Day Type
  0,                                      ! Daylight Saving Time Indicator
  Wetbulb,                                ! Humidity Indicating Type
  ,                                       ! Humidity Indicating Day Schedule Name
  DefaultMultipliers,                     ! Dry-Bulb Temperature Range Modifier Type
  ,                                       ! Dry-Bulb Temperature Range Modifier Schedule Name
  ASHRAETau,                              ! Solar Model Indicator
  ,                                       ! Beam Solar Day Schedule Name
  ,                                       ! Diffuse Solar Day Schedule Name
  0.543,                                  ! ASHRAE Taub {dimensionless}
  1.689;                                  ! ASHRAE Taud {dimensionless}

OS:ComponentData,
  {b7032ef3-0ed5-46e0-90e4-9e684279805c}, ! Handle
  Component Data 1,                       ! Name
  {6c17735b-cc02-438f-8cb5-3b3a385e05b7}, ! UUID
  {bfcb20e9-012d-4670-ae53-e88312dc11e2}, ! Version UUID
  1366309444,                             ! Creation Timestamp
  1366309444,                             ! Version Timestamp
  {045c7977-22de-4f13-b172-d4be8e02cb82}; ! Name of Object 1

