
OS:Version,
  {90531e00-22c0-4b8b-8f8f-d94ae277b711}, ! Handle
  0.9.3;                                  ! Version Identifier

OS:SizingPeriod:DesignDay,
  {7f52933a-6df3-4d32-b287-d3e4f594981c}, ! Handle
  Thief River Awos Ann Clg .4% Condns DP=>MDB, ! Name
  26.6,                                   ! Maximum Dry-Bulb Temperature {C}
  10.3,                                   ! Daily Dry-Bulb Temperature Range {deltaC}
  21.3,                                   ! Humidity Indicating Conditions at Maximum Dry-Bulb {BasedOnField A3}
  97307,                                  ! Barometric Pressure {Pa}
  5.7,                                    ! Wind Speed {m/s}
  200,                                    ! Wind Direction {deg}
  0,                                      ! Sky Clearness
  0,                                      ! Rain Indicator
  0,                                      ! Snow Indicator
  21,                                     ! Day of Month
  7,                                      ! Month
  SummerDesignDay,                        ! Day Type
  0,                                      ! Daylight Saving Time Indicator
  Dewpoint,                               ! Humidity Indicating Type
  ,                                       ! Humidity Indicating Day Schedule Name
  DefaultMultipliers,                     ! Dry-Bulb Temperature Range Modifier Type
  ,                                       ! Dry-Bulb Temperature Range Modifier Schedule Name
  ASHRAETau,                              ! Solar Model Indicator
  ,                                       ! Beam Solar Day Schedule Name
  ,                                       ! Diffuse Solar Day Schedule Name
  0.394,                                  ! ASHRAE Taub {dimensionless}
  2.258;                                  ! ASHRAE Taud {dimensionless}

OS:ComponentData,
  {683476f7-7271-4f94-98de-142f2289b891}, ! Handle
  Component Data 1,                       ! Name
  {274a69e5-b909-4919-8e65-191f9477480f}, ! UUID
  {5b2d359c-58eb-4678-97e7-7bcc4f43e537}, ! Version UUID
  1366308441,                             ! Creation Timestamp
  1366308441,                             ! Version Timestamp
  {7f52933a-6df3-4d32-b287-d3e4f594981c}; ! Name of Object 1

