
OS:Version,
  {28e1f722-29f8-40f8-84af-1ec1b3d0ebc2}, ! Handle
  0.9.3;                                  ! Version Identifier

OS:SizingPeriod:DesignDay,
  {61ec6710-1eec-40d1-981f-4a0b2d25c98b}, ! Handle
  Medford Rogue Valley Intl Ap Ann Clg 1% Condns DB=>MWB, ! Name
  35.2,                                   ! Maximum Dry-Bulb Temperature {C}
  17.9,                                   ! Daily Dry-Bulb Temperature Range {deltaC}
  18.8,                                   ! Humidity Indicating Conditions at Maximum Dry-Bulb {BasedOnField A3}
  94378,                                  ! Barometric Pressure {Pa}
  3.9,                                    ! Wind Speed {m/s}
  290,                                    ! Wind Direction {deg}
  0,                                      ! Sky Clearness
  0,                                      ! Rain Indicator
  0,                                      ! Snow Indicator
  21,                                     ! Day of Month
  7,                                      ! Month
  SummerDesignDay,                        ! Day Type
  0,                                      ! Daylight Saving Time Indicator
  Wetbulb,                                ! Humidity Indicating Type
  ,                                       ! Humidity Indicating Day Schedule Name
  DefaultMultipliers,                     ! Dry-Bulb Temperature Range Modifier Type
  ,                                       ! Dry-Bulb Temperature Range Modifier Schedule Name
  ASHRAETau,                              ! Solar Model Indicator
  ,                                       ! Beam Solar Day Schedule Name
  ,                                       ! Diffuse Solar Day Schedule Name
  0.356,                                  ! ASHRAE Taub {dimensionless}
  2.582;                                  ! ASHRAE Taud {dimensionless}

OS:ComponentData,
  {a7951e27-f621-49aa-89a3-2b116bc114e2}, ! Handle
  Component Data 1,                       ! Name
  {bc5fd33f-dbec-490a-aa82-8b2388580b91}, ! UUID
  {bad3e168-ced8-4ee7-bd20-243a3297da4f}, ! Version UUID
  1366310035,                             ! Creation Timestamp
  1366310035,                             ! Version Timestamp
  {61ec6710-1eec-40d1-981f-4a0b2d25c98b}; ! Name of Object 1

