
OS:Version,
  {5125586c-5244-4d5e-9abe-b5ff6717becf}, ! Handle
  0.9.3;                                  ! Version Identifier

OS:SizingPeriod:DesignDay,
  {125e1c3b-dbd8-4922-a2af-8a5942a4da57}, ! Handle
  Republic Ann Clg 1% Condns DP=>MDB,     ! Name
  25.7,                                   ! Maximum Dry-Bulb Temperature {C}
  8,                                      ! Daily Dry-Bulb Temperature Range {deltaC}
  22.9,                                   ! Humidity Indicating Conditions at Maximum Dry-Bulb {BasedOnField A3}
  101013,                                 ! Barometric Pressure {Pa}
  5.5,                                    ! Wind Speed {m/s}
  210,                                    ! Wind Direction {deg}
  0,                                      ! Sky Clearness
  0,                                      ! Rain Indicator
  0,                                      ! Snow Indicator
  21,                                     ! Day of Month
  7,                                      ! Month
  SummerDesignDay,                        ! Day Type
  0,                                      ! Daylight Saving Time Indicator
  Dewpoint,                               ! Humidity Indicating Type
  ,                                       ! Humidity Indicating Day Schedule Name
  DefaultMultipliers,                     ! Dry-Bulb Temperature Range Modifier Type
  ,                                       ! Dry-Bulb Temperature Range Modifier Schedule Name
  ASHRAETau,                              ! Solar Model Indicator
  ,                                       ! Beam Solar Day Schedule Name
  ,                                       ! Diffuse Solar Day Schedule Name
  0.541,                                  ! ASHRAE Taub {dimensionless}
  1.799;                                  ! ASHRAE Taud {dimensionless}

OS:ComponentData,
  {0ff72967-1371-48a2-909e-9d27599b2cf1}, ! Handle
  Component Data 1,                       ! Name
  {3ca6dbd3-314c-4811-b6a9-c292ad94c48e}, ! UUID
  {21df43bc-a690-4cdb-a1fb-a050b492953b}, ! Version UUID
  1366309710,                             ! Creation Timestamp
  1366309710,                             ! Version Timestamp
  {125e1c3b-dbd8-4922-a2af-8a5942a4da57}; ! Name of Object 1

