
OS:Version,
  {3cd91c45-feac-4c7a-8384-e3dd47bfb8ba}, ! Handle
  0.9.3;                                  ! Version Identifier

OS:SizingPeriod:DesignDay,
  {6ebaab19-5553-4c74-8242-c59707b5cd9d}, ! Handle
  Massena Ann Hum_n 99.6% Condns DP=>MCDB, ! Name
  -24.9,                                  ! Maximum Dry-Bulb Temperature {C}
  0,                                      ! Daily Dry-Bulb Temperature Range {deltaC}
  -30,                                    ! Humidity Indicating Conditions at Maximum Dry-Bulb {BasedOnField A3}
  100547,                                 ! Barometric Pressure {Pa}
  1.8,                                    ! Wind Speed {m/s}
  270,                                    ! Wind Direction {deg}
  0,                                      ! Sky Clearness
  0,                                      ! Rain Indicator
  0,                                      ! Snow Indicator
  21,                                     ! Day of Month
  1,                                      ! Month
  WinterDesignDay,                        ! Day Type
  0,                                      ! Daylight Saving Time Indicator
  Dewpoint,                               ! Humidity Indicating Type
  ,                                       ! Humidity Indicating Day Schedule Name
  DefaultMultipliers,                     ! Dry-Bulb Temperature Range Modifier Type
  ,                                       ! Dry-Bulb Temperature Range Modifier Schedule Name
  ASHRAEClearSky;                         ! Solar Model Indicator

OS:ComponentData,
  {35b709d6-674d-405c-b435-9e75b1b17fcc}, ! Handle
  Component Data 1,                       ! Name
  {8f5dacc4-dda8-4105-9dd2-29f4205b48a8}, ! UUID
  {fbd2410d-4ea5-46b5-86bb-16aa0922478e}, ! Version UUID
  1366309649,                             ! Creation Timestamp
  1366309649,                             ! Version Timestamp
  {6ebaab19-5553-4c74-8242-c59707b5cd9d}; ! Name of Object 1

