
OS:Version,
  {f0326884-62e5-494a-8060-62780f54926b}, ! Handle
  0.9.3;                                  ! Version Identifier

OS:SizingPeriod:DesignDay,
  {8a4d7546-9731-4c37-8fd6-e9b0e2d7da00}, ! Handle
  Midland/Odessa Ann Clg .4% Condns DP=>MDB, ! Name
  24.7,                                   ! Maximum Dry-Bulb Temperature {C}
  13.1,                                   ! Daily Dry-Bulb Temperature Range {deltaC}
  21.1,                                   ! Humidity Indicating Conditions at Maximum Dry-Bulb {BasedOnField A3}
  91279,                                  ! Barometric Pressure {Pa}
  5.7,                                    ! Wind Speed {m/s}
  150,                                    ! Wind Direction {deg}
  0,                                      ! Sky Clearness
  0,                                      ! Rain Indicator
  0,                                      ! Snow Indicator
  21,                                     ! Day of Month
  7,                                      ! Month
  SummerDesignDay,                        ! Day Type
  0,                                      ! Daylight Saving Time Indicator
  Dewpoint,                               ! Humidity Indicating Type
  ,                                       ! Humidity Indicating Day Schedule Name
  DefaultMultipliers,                     ! Dry-Bulb Temperature Range Modifier Type
  ,                                       ! Dry-Bulb Temperature Range Modifier Schedule Name
  ASHRAETau,                              ! Solar Model Indicator
  ,                                       ! Beam Solar Day Schedule Name
  ,                                       ! Diffuse Solar Day Schedule Name
  0.443,                                  ! ASHRAE Taub {dimensionless}
  2.032;                                  ! ASHRAE Taud {dimensionless}

OS:ComponentData,
  {d5eead75-db06-4414-8a17-f25e0b7759f2}, ! Handle
  Component Data 1,                       ! Name
  {911c0191-ffad-4b18-b6b5-443b8c804a31}, ! UUID
  {c99130b0-b250-4cc4-ad28-bf999e7c5971}, ! Version UUID
  1366310831,                             ! Creation Timestamp
  1366310831,                             ! Version Timestamp
  {8a4d7546-9731-4c37-8fd6-e9b0e2d7da00}; ! Name of Object 1

