
OS:Version,
  {f3368320-c85c-41aa-b8e2-106429a09267}, ! Handle
  0.9.3;                                  ! Version Identifier

OS:SizingPeriod:DesignDay,
  {fd8288e9-a038-4570-8079-59fbfc72fb9f}, ! Handle
  Moline Quad City Intl Ap Ann Htg Wind 99% Condns WS=>MCDB, ! Name
  -7.7,                                   ! Maximum Dry-Bulb Temperature {C}
  0,                                      ! Daily Dry-Bulb Temperature Range {deltaC}
  -7.7,                                   ! Humidity Indicating Conditions at Maximum Dry-Bulb {BasedOnField A3}
  99181,                                  ! Barometric Pressure {Pa}
  11.9,                                   ! Wind Speed {m/s}
  280,                                    ! Wind Direction {deg}
  0,                                      ! Sky Clearness
  0,                                      ! Rain Indicator
  0,                                      ! Snow Indicator
  21,                                     ! Day of Month
  1,                                      ! Month
  WinterDesignDay,                        ! Day Type
  0,                                      ! Daylight Saving Time Indicator
  Wetbulb,                                ! Humidity Indicating Type
  ,                                       ! Humidity Indicating Day Schedule Name
  DefaultMultipliers,                     ! Dry-Bulb Temperature Range Modifier Type
  ,                                       ! Dry-Bulb Temperature Range Modifier Schedule Name
  ASHRAEClearSky;                         ! Solar Model Indicator

OS:ComponentData,
  {dba32521-38f5-4ab9-b646-ab477f5a14da}, ! Handle
  Component Data 1,                       ! Name
  {cc565d55-5899-4adc-8f36-d400782d4535}, ! UUID
  {fb9f0736-6c1e-499b-b99d-02a6f07f5dcf}, ! Version UUID
  1366307367,                             ! Creation Timestamp
  1366307367,                             ! Version Timestamp
  {fd8288e9-a038-4570-8079-59fbfc72fb9f}; ! Name of Object 1

