
OS:Version,
  {848ca121-ae84-4adb-a5e1-f5c80c53193d}, ! Handle
  0.9.3;                                  ! Version Identifier

OS:SizingPeriod:DesignDay,
  {169e99fc-ff3f-4a3b-a7d0-3e27b244d756}, ! Handle
  Red Bluff Municipal Arpt Ann Hum_n 99% Condns DP=>MCDB, ! Name
  12.7,                                   ! Maximum Dry-Bulb Temperature {C}
  0,                                      ! Daily Dry-Bulb Temperature Range {deltaC}
  -7.4,                                   ! Humidity Indicating Conditions at Maximum Dry-Bulb {BasedOnField A3}
  100058,                                 ! Barometric Pressure {Pa}
  2.3,                                    ! Wind Speed {m/s}
  320,                                    ! Wind Direction {deg}
  0,                                      ! Sky Clearness
  0,                                      ! Rain Indicator
  0,                                      ! Snow Indicator
  21,                                     ! Day of Month
  12,                                     ! Month
  WinterDesignDay,                        ! Day Type
  0,                                      ! Daylight Saving Time Indicator
  Dewpoint,                               ! Humidity Indicating Type
  ,                                       ! Humidity Indicating Day Schedule Name
  DefaultMultipliers,                     ! Dry-Bulb Temperature Range Modifier Type
  ,                                       ! Dry-Bulb Temperature Range Modifier Schedule Name
  ASHRAEClearSky;                         ! Solar Model Indicator

OS:ComponentData,
  {cc51f903-914b-4b38-be57-be7bfb0fee30}, ! Handle
  Component Data 1,                       ! Name
  {7ee3c1d4-bde1-49bb-b415-e7e4f8a41f72}, ! UUID
  {185079dd-b937-4d24-aef0-8976cce53feb}, ! Version UUID
  1366306546,                             ! Creation Timestamp
  1366306546,                             ! Version Timestamp
  {169e99fc-ff3f-4a3b-a7d0-3e27b244d756}; ! Name of Object 1

