
OS:Version,
  {b0083bba-644d-4cad-b16a-3ff6c5d6be39}, ! Handle
  0.9.3;                                  ! Version Identifier

OS:SizingPeriod:DesignDay,
  {f9db78c1-addb-48ae-9970-ee7547a76437}, ! Handle
  Yuma Mcas Ann Clg 2% Condns WB=>MDB,    ! Name
  35.3,                                   ! Maximum Dry-Bulb Temperature {C}
  13.1,                                   ! Daily Dry-Bulb Temperature Range {deltaC}
  25.3,                                   ! Humidity Indicating Conditions at Maximum Dry-Bulb {BasedOnField A3}
  100547,                                 ! Barometric Pressure {Pa}
  3.4,                                    ! Wind Speed {m/s}
  180,                                    ! Wind Direction {deg}
  0,                                      ! Sky Clearness
  0,                                      ! Rain Indicator
  0,                                      ! Snow Indicator
  21,                                     ! Day of Month
  7,                                      ! Month
  SummerDesignDay,                        ! Day Type
  0,                                      ! Daylight Saving Time Indicator
  Wetbulb,                                ! Humidity Indicating Type
  ,                                       ! Humidity Indicating Day Schedule Name
  DefaultMultipliers,                     ! Dry-Bulb Temperature Range Modifier Type
  ,                                       ! Dry-Bulb Temperature Range Modifier Schedule Name
  ASHRAETau,                              ! Solar Model Indicator
  ,                                       ! Beam Solar Day Schedule Name
  ,                                       ! Diffuse Solar Day Schedule Name
  0.533,                                  ! ASHRAE Taub {dimensionless}
  1.765;                                  ! ASHRAE Taud {dimensionless}

OS:ComponentData,
  {71d5d12c-b687-48c8-96d7-5dfa910593ee}, ! Handle
  Component Data 1,                       ! Name
  {1a778236-eff2-45e9-83d6-298bf5744382}, ! UUID
  {5a9dd76d-ef61-47e9-b259-e1e863ea0e4a}, ! Version UUID
  1366306341,                             ! Creation Timestamp
  1366306341,                             ! Version Timestamp
  {f9db78c1-addb-48ae-9970-ee7547a76437}; ! Name of Object 1

