
OS:Version,
  {1a5578fa-700d-4b4d-bd56-72f968be88d1}, ! Handle
  0.9.3;                                  ! Version Identifier

OS:SizingPeriod:DesignDay,
  {b9f6e8ee-f973-435d-9169-9bbf32dca0b4}, ! Handle
  Miles City Municipal Arpt Ann Hum_n 99% Condns DP=>MCDB, ! Name
  -24,                                    ! Maximum Dry-Bulb Temperature {C}
  0,                                      ! Daily Dry-Bulb Temperature Range {deltaC}
  -28.4,                                  ! Humidity Indicating Conditions at Maximum Dry-Bulb {BasedOnField A3}
  92065,                                  ! Barometric Pressure {Pa}
  3.2,                                    ! Wind Speed {m/s}
  310,                                    ! Wind Direction {deg}
  0,                                      ! Sky Clearness
  0,                                      ! Rain Indicator
  0,                                      ! Snow Indicator
  21,                                     ! Day of Month
  1,                                      ! Month
  WinterDesignDay,                        ! Day Type
  0,                                      ! Daylight Saving Time Indicator
  Dewpoint,                               ! Humidity Indicating Type
  ,                                       ! Humidity Indicating Day Schedule Name
  DefaultMultipliers,                     ! Dry-Bulb Temperature Range Modifier Type
  ,                                       ! Dry-Bulb Temperature Range Modifier Schedule Name
  ASHRAEClearSky;                         ! Solar Model Indicator

OS:ComponentData,
  {1b60803e-eabc-4252-9fb7-48630a35bccc}, ! Handle
  Component Data 1,                       ! Name
  {7192dd99-52e5-4268-ad24-67bbb5c289e2}, ! UUID
  {3c1a10b9-1d72-4e0c-b976-72d57a7d234c}, ! Version UUID
  1366308835,                             ! Creation Timestamp
  1366308835,                             ! Version Timestamp
  {b9f6e8ee-f973-435d-9169-9bbf32dca0b4}; ! Name of Object 1

