
OS:Version,
  {86e21103-5ae8-4bd5-b38e-70ea89b65e11}, ! Handle
  0.9.3;                                  ! Version Identifier

OS:SizingPeriod:DesignDay,
  {a9a3b353-5969-4ff9-8b76-e396ae42d164}, ! Handle
  Mobridge Ann Clg 1% Condns WB=>MDB,     ! Name
  29.6,                                   ! Maximum Dry-Bulb Temperature {C}
  12.5,                                   ! Daily Dry-Bulb Temperature Range {deltaC}
  22.7,                                   ! Humidity Indicating Conditions at Maximum Dry-Bulb {BasedOnField A3}
  95369,                                  ! Barometric Pressure {Pa}
  5.7,                                    ! Wind Speed {m/s}
  150,                                    ! Wind Direction {deg}
  0,                                      ! Sky Clearness
  0,                                      ! Rain Indicator
  0,                                      ! Snow Indicator
  21,                                     ! Day of Month
  7,                                      ! Month
  SummerDesignDay,                        ! Day Type
  0,                                      ! Daylight Saving Time Indicator
  Wetbulb,                                ! Humidity Indicating Type
  ,                                       ! Humidity Indicating Day Schedule Name
  DefaultMultipliers,                     ! Dry-Bulb Temperature Range Modifier Type
  ,                                       ! Dry-Bulb Temperature Range Modifier Schedule Name
  ASHRAETau,                              ! Solar Model Indicator
  ,                                       ! Beam Solar Day Schedule Name
  ,                                       ! Diffuse Solar Day Schedule Name
  0.406,                                  ! ASHRAE Taub {dimensionless}
  2.187;                                  ! ASHRAE Taud {dimensionless}

OS:ComponentData,
  {2d560318-ca10-4ac9-9bc0-656855dcf18f}, ! Handle
  Component Data 1,                       ! Name
  {06830b57-7c06-4111-b2c4-fcb2f75d4e56}, ! UUID
  {a394ac59-3900-4f32-9b52-9c2f6720cd4c}, ! Version UUID
  1366310418,                             ! Creation Timestamp
  1366310418,                             ! Version Timestamp
  {a9a3b353-5969-4ff9-8b76-e396ae42d164}; ! Name of Object 1

