
OS:Version,
  {125b65bb-c267-4710-927d-b8d57f0c5770}, ! Handle
  0.9.3;                                  ! Version Identifier

OS:SizingPeriod:DesignDay,
  {55b04b37-ec9d-439c-bd41-11467770bf05}, ! Handle
  Mount Shasta Ann Clg 1% Condns WB=>MDB, ! Name
  28.7,                                   ! Maximum Dry-Bulb Temperature {C}
  17,                                     ! Daily Dry-Bulb Temperature Range {deltaC}
  17.8,                                   ! Humidity Indicating Conditions at Maximum Dry-Bulb {BasedOnField A3}
  89038,                                  ! Barometric Pressure {Pa}
  1.7,                                    ! Wind Speed {m/s}
  180,                                    ! Wind Direction {deg}
  0,                                      ! Sky Clearness
  0,                                      ! Rain Indicator
  0,                                      ! Snow Indicator
  21,                                     ! Day of Month
  7,                                      ! Month
  SummerDesignDay,                        ! Day Type
  0,                                      ! Daylight Saving Time Indicator
  Wetbulb,                                ! Humidity Indicating Type
  ,                                       ! Humidity Indicating Day Schedule Name
  DefaultMultipliers,                     ! Dry-Bulb Temperature Range Modifier Type
  ,                                       ! Dry-Bulb Temperature Range Modifier Schedule Name
  ASHRAETau,                              ! Solar Model Indicator
  ,                                       ! Beam Solar Day Schedule Name
  ,                                       ! Diffuse Solar Day Schedule Name
  0.334,                                  ! ASHRAE Taub {dimensionless}
  2.582;                                  ! ASHRAE Taud {dimensionless}

