
OS:Version,
  {54e8eae8-9bbe-4cd8-9220-6a28e67b0dfc}, ! Handle
  0.9.3;                                  ! Version Identifier

OS:SizingPeriod:DesignDay,
  {5e5d7fcc-9a77-4b86-bf9b-834b5fd30a4f}, ! Handle
  Wichita Falls/Sheppard Ann Htg Wind 99.6% Condns WS=>MCDB, ! Name
  6.4,                                    ! Maximum Dry-Bulb Temperature {C}
  0,                                      ! Daily Dry-Bulb Temperature Range {deltaC}
  6.4,                                    ! Humidity Indicating Conditions at Maximum Dry-Bulb {BasedOnField A3}
  97609,                                  ! Barometric Pressure {Pa}
  13.4,                                   ! Wind Speed {m/s}
  0,                                      ! Wind Direction {deg}
  0,                                      ! Sky Clearness
  0,                                      ! Rain Indicator
  0,                                      ! Snow Indicator
  21,                                     ! Day of Month
  1,                                      ! Month
  WinterDesignDay,                        ! Day Type
  0,                                      ! Daylight Saving Time Indicator
  Wetbulb,                                ! Humidity Indicating Type
  ,                                       ! Humidity Indicating Day Schedule Name
  DefaultMultipliers,                     ! Dry-Bulb Temperature Range Modifier Type
  ,                                       ! Dry-Bulb Temperature Range Modifier Schedule Name
  ASHRAEClearSky;                         ! Solar Model Indicator

OS:ComponentData,
  {5167161b-30ec-4e56-9ba7-a02fface5c63}, ! Handle
  Component Data 1,                       ! Name
  {8ab8665f-1046-4e1f-a930-eeb3245307b3}, ! UUID
  {7605780d-2d33-48fc-aaf4-0ecf1db9db40}, ! Version UUID
  1366310931,                             ! Creation Timestamp
  1366310931,                             ! Version Timestamp
  {5e5d7fcc-9a77-4b86-bf9b-834b5fd30a4f}; ! Name of Object 1

