
OS:Version,
  {8e4a0e66-7785-490f-9a80-1b60b4aa1c3a}, ! Handle
  0.9.3;                                  ! Version Identifier

OS:SizingPeriod:DesignDay,
  {d349d408-5c0f-449e-b835-2278b91e19ab}, ! Handle
  Savannah Intl Ap Ann Hum_n 99% Condns DP=>MCDB, ! Name
  4.7,                                    ! Maximum Dry-Bulb Temperature {C}
  0,                                      ! Daily Dry-Bulb Temperature Range {deltaC}
  -9.7,                                   ! Humidity Indicating Conditions at Maximum Dry-Bulb {BasedOnField A3}
  101157,                                 ! Barometric Pressure {Pa}
  2.1,                                    ! Wind Speed {m/s}
  300,                                    ! Wind Direction {deg}
  0,                                      ! Sky Clearness
  0,                                      ! Rain Indicator
  0,                                      ! Snow Indicator
  21,                                     ! Day of Month
  1,                                      ! Month
  WinterDesignDay,                        ! Day Type
  0,                                      ! Daylight Saving Time Indicator
  Dewpoint,                               ! Humidity Indicating Type
  ,                                       ! Humidity Indicating Day Schedule Name
  DefaultMultipliers,                     ! Dry-Bulb Temperature Range Modifier Type
  ,                                       ! Dry-Bulb Temperature Range Modifier Schedule Name
  ASHRAEClearSky;                         ! Solar Model Indicator

OS:ComponentData,
  {30a9a2c0-bc77-49cb-99fc-a8266f188793}, ! Handle
  Component Data 1,                       ! Name
  {78bc1166-c788-4813-9bfc-8a3b28597a86}, ! UUID
  {b547564a-f58d-4402-a771-be7b1201e9df}, ! Version UUID
  1366307056,                             ! Creation Timestamp
  1366307056,                             ! Version Timestamp
  {d349d408-5c0f-449e-b835-2278b91e19ab}; ! Name of Object 1

