
OS:Version,
  {da455048-1053-447f-84f3-229c0d67ce21}, ! Handle
  0.9.3;                                  ! Version Identifier

OS:SizingPeriod:DesignDay,
  {1d767207-4942-48f7-a617-82b53449054b}, ! Handle
  Reading Spaatz Field Ann Clg 2% Condns DP=>MDB, ! Name
  26.4,                                   ! Maximum Dry-Bulb Temperature {C}
  10.9,                                   ! Daily Dry-Bulb Temperature Range {deltaC}
  22.2,                                   ! Humidity Indicating Conditions at Maximum Dry-Bulb {BasedOnField A3}
  100082,                                 ! Barometric Pressure {Pa}
  4.5,                                    ! Wind Speed {m/s}
  270,                                    ! Wind Direction {deg}
  0,                                      ! Sky Clearness
  0,                                      ! Rain Indicator
  0,                                      ! Snow Indicator
  21,                                     ! Day of Month
  7,                                      ! Month
  SummerDesignDay,                        ! Day Type
  0,                                      ! Daylight Saving Time Indicator
  Dewpoint,                               ! Humidity Indicating Type
  ,                                       ! Humidity Indicating Day Schedule Name
  DefaultMultipliers,                     ! Dry-Bulb Temperature Range Modifier Type
  ,                                       ! Dry-Bulb Temperature Range Modifier Schedule Name
  ASHRAETau,                              ! Solar Model Indicator
  ,                                       ! Beam Solar Day Schedule Name
  ,                                       ! Diffuse Solar Day Schedule Name
  0.516,                                  ! ASHRAE Taub {dimensionless}
  1.849;                                  ! ASHRAE Taud {dimensionless}

OS:ComponentData,
  {57af1d51-6441-45ee-852e-744933c2fda9}, ! Handle
  Component Data 1,                       ! Name
  {2342b552-5f70-447d-9a58-224346b4c62e}, ! UUID
  {423bfc29-4ce4-4c1d-97d3-0c0fc3a22a51}, ! Version UUID
  1366310252,                             ! Creation Timestamp
  1366310252,                             ! Version Timestamp
  {1d767207-4942-48f7-a617-82b53449054b}; ! Name of Object 1

