
OS:Version,
  {dd38c52f-b3fa-4c2d-a278-69ca6dfe212d}, ! Handle
  0.9.3;                                  ! Version Identifier

OS:SizingPeriod:DesignDay,
  {4bee323b-9509-40e4-8214-d8ee1e0fd1ad}, ! Handle
  RICHMOND Ann Hum_n 99.6% Condns DP=>MCDB, ! Name
  -5,                                     ! Maximum Dry-Bulb Temperature {C}
  0,                                      ! Daily Dry-Bulb Temperature Range {deltaC}
  -17.8,                                  ! Humidity Indicating Conditions at Maximum Dry-Bulb {BasedOnField A3}
  100726,                                 ! Barometric Pressure {Pa}
  3.4,                                    ! Wind Speed {m/s}
  0,                                      ! Wind Direction {deg}
  0,                                      ! Sky Clearness
  0,                                      ! Rain Indicator
  0,                                      ! Snow Indicator
  21,                                     ! Day of Month
  1,                                      ! Month
  WinterDesignDay,                        ! Day Type
  0,                                      ! Daylight Saving Time Indicator
  Dewpoint,                               ! Humidity Indicating Type
  ,                                       ! Humidity Indicating Day Schedule Name
  DefaultMultipliers,                     ! Dry-Bulb Temperature Range Modifier Type
  ,                                       ! Dry-Bulb Temperature Range Modifier Schedule Name
  ASHRAEClearSky;                         ! Solar Model Indicator

OS:ComponentData,
  {ef27f879-da4d-42ef-8bc5-1882b011b29a}, ! Handle
  Component Data 1,                       ! Name
  {694d6f35-d69d-448b-af46-a7a6267465ad}, ! UUID
  {e6df1bcb-686c-44bd-b6b4-39a811ca394e}, ! Version UUID
  1366311163,                             ! Creation Timestamp
  1366311163,                             ! Version Timestamp
  {4bee323b-9509-40e4-8214-d8ee1e0fd1ad}; ! Name of Object 1

