
OS:Version,
  {a9676b3f-90e6-49f3-b22b-b9ce9f769117}, ! Handle
  0.9.3;                                  ! Version Identifier

OS:SizingPeriod:DesignDay,
  {2e6e79ca-b284-4fcf-91d9-9c5779eed844}, ! Handle
  West Palm Beach Intl Arpt Ann Htg Wind 99.6% Condns WS=>MCDB, ! Name
  21.6,                                   ! Maximum Dry-Bulb Temperature {C}
  0,                                      ! Daily Dry-Bulb Temperature Range {deltaC}
  21.6,                                   ! Humidity Indicating Conditions at Maximum Dry-Bulb {BasedOnField A3}
  101253,                                 ! Barometric Pressure {Pa}
  11.7,                                   ! Wind Speed {m/s}
  320,                                    ! Wind Direction {deg}
  0,                                      ! Sky Clearness
  0,                                      ! Rain Indicator
  0,                                      ! Snow Indicator
  21,                                     ! Day of Month
  1,                                      ! Month
  WinterDesignDay,                        ! Day Type
  0,                                      ! Daylight Saving Time Indicator
  Wetbulb,                                ! Humidity Indicating Type
  ,                                       ! Humidity Indicating Day Schedule Name
  DefaultMultipliers,                     ! Dry-Bulb Temperature Range Modifier Type
  ,                                       ! Dry-Bulb Temperature Range Modifier Schedule Name
  ASHRAEClearSky;                         ! Solar Model Indicator

OS:ComponentData,
  {8ef470b4-95a6-4127-88f4-d99666e54db4}, ! Handle
  Component Data 1,                       ! Name
  {068f2b2e-a836-463a-ae0e-96880ca69399}, ! UUID
  {edabdc96-de95-4721-b9be-6ecd6c6a3974}, ! Version UUID
  1366306954,                             ! Creation Timestamp
  1366306954,                             ! Version Timestamp
  {2e6e79ca-b284-4fcf-91d9-9c5779eed844}; ! Name of Object 1

