
OS:Version,
  {2f8bd0ac-2ef5-4cc5-ba3a-aff381cf1815}, ! Handle
  0.9.3;                                  ! Version Identifier

OS:SizingPeriod:DesignDay,
  {a3872de9-c7bf-41f9-b6a5-383c0f58257b}, ! Handle
  SAN_ANGELO Ann Clg .4% Condns DB=>MWB,  ! Name
  37.9,                                   ! Maximum Dry-Bulb Temperature {C}
  12.8,                                   ! Daily Dry-Bulb Temperature Range {deltaC}
  21.1,                                   ! Humidity Indicating Conditions at Maximum Dry-Bulb {BasedOnField A3}
  94526,                                  ! Barometric Pressure {Pa}
  4.9,                                    ! Wind Speed {m/s}
  170,                                    ! Wind Direction {deg}
  0,                                      ! Sky Clearness
  0,                                      ! Rain Indicator
  0,                                      ! Snow Indicator
  21,                                     ! Day of Month
  7,                                      ! Month
  SummerDesignDay,                        ! Day Type
  0,                                      ! Daylight Saving Time Indicator
  Wetbulb,                                ! Humidity Indicating Type
  ,                                       ! Humidity Indicating Day Schedule Name
  DefaultMultipliers,                     ! Dry-Bulb Temperature Range Modifier Type
  ,                                       ! Dry-Bulb Temperature Range Modifier Schedule Name
  ASHRAETau,                              ! Solar Model Indicator
  ,                                       ! Beam Solar Day Schedule Name
  ,                                       ! Diffuse Solar Day Schedule Name
  0.454,                                  ! ASHRAE Taub {dimensionless}
  2.053;                                  ! ASHRAE Taud {dimensionless}

OS:ComponentData,
  {36926e14-e85d-4998-acad-ccf98b5b205f}, ! Handle
  Component Data 1,                       ! Name
  {56f460a7-1d78-4b51-b39f-0a2327d16fdd}, ! UUID
  {daea4175-6721-4ab7-9414-96e3061908fd}, ! Version UUID
  1366310877,                             ! Creation Timestamp
  1366310877,                             ! Version Timestamp
  {a3872de9-c7bf-41f9-b6a5-383c0f58257b}; ! Name of Object 1

