
OS:Version,
  {0bf6af9e-5e52-42af-a22c-bda0439be992}, ! Handle
  0.9.3;                                  ! Version Identifier

OS:SizingPeriod:DesignDay,
  {9dcc2789-7e8a-4e83-a29d-db64c5138aec}, ! Handle
  Orlando Ann Clg 1% Condns DP=>MDB,      ! Name
  27.5,                                   ! Maximum Dry-Bulb Temperature {C}
  8.8,                                    ! Daily Dry-Bulb Temperature Range {deltaC}
  25.1,                                   ! Humidity Indicating Conditions at Maximum Dry-Bulb {BasedOnField A3}
  100941,                                 ! Barometric Pressure {Pa}
  3.7,                                    ! Wind Speed {m/s}
  270,                                    ! Wind Direction {deg}
  0,                                      ! Sky Clearness
  0,                                      ! Rain Indicator
  0,                                      ! Snow Indicator
  21,                                     ! Day of Month
  7,                                      ! Month
  SummerDesignDay,                        ! Day Type
  0,                                      ! Daylight Saving Time Indicator
  Dewpoint,                               ! Humidity Indicating Type
  ,                                       ! Humidity Indicating Day Schedule Name
  DefaultMultipliers,                     ! Dry-Bulb Temperature Range Modifier Type
  ,                                       ! Dry-Bulb Temperature Range Modifier Schedule Name
  ASHRAETau,                              ! Solar Model Indicator
  ,                                       ! Beam Solar Day Schedule Name
  ,                                       ! Diffuse Solar Day Schedule Name
  0.516,                                  ! ASHRAE Taub {dimensionless}
  1.924;                                  ! ASHRAE Taud {dimensionless}

OS:ComponentData,
  {7c43456e-4f54-4edd-8627-b4590d6271f7}, ! Handle
  Component Data 1,                       ! Name
  {e80b1f66-9eb9-417b-b3a9-4fd50b644d9e}, ! UUID
  {f319c709-8eb9-4395-9349-f1de7fc4caae}, ! Version UUID
  1366306889,                             ! Creation Timestamp
  1366306889,                             ! Version Timestamp
  {9dcc2789-7e8a-4e83-a29d-db64c5138aec}; ! Name of Object 1

