
OS:Version,
  {7357e200-6c13-4704-a11d-178e80262697}, ! Handle
  0.9.3;                                  ! Version Identifier

OS:SizingPeriod:DesignDay,
  {19741996-d22c-45af-909e-0a125d480fc8}, ! Handle
  TALKEETNA Ann Clg 2% Condns WB=>MDB,    ! Name
  19.7,                                   ! Maximum Dry-Bulb Temperature {C}
  8.8,                                    ! Daily Dry-Bulb Temperature Range {deltaC}
  14.8,                                   ! Humidity Indicating Conditions at Maximum Dry-Bulb {BasedOnField A3}
  100070,                                 ! Barometric Pressure {Pa}
  2.9,                                    ! Wind Speed {m/s}
  180,                                    ! Wind Direction {deg}
  0,                                      ! Sky Clearness
  0,                                      ! Rain Indicator
  0,                                      ! Snow Indicator
  21,                                     ! Day of Month
  7,                                      ! Month
  SummerDesignDay,                        ! Day Type
  0,                                      ! Daylight Saving Time Indicator
  Wetbulb,                                ! Humidity Indicating Type
  ,                                       ! Humidity Indicating Day Schedule Name
  DefaultMultipliers,                     ! Dry-Bulb Temperature Range Modifier Type
  ,                                       ! Dry-Bulb Temperature Range Modifier Schedule Name
  ASHRAETau,                              ! Solar Model Indicator
  ,                                       ! Beam Solar Day Schedule Name
  ,                                       ! Diffuse Solar Day Schedule Name
  0.379,                                  ! ASHRAE Taub {dimensionless}
  2.177;                                  ! ASHRAE Taud {dimensionless}

OS:ComponentData,
  {f13b4168-b80c-42e5-9b94-9bcc84caa0a5}, ! Handle
  Component Data 1,                       ! Name
  {fd43fc93-8057-43ff-ad08-6129bf94de85}, ! UUID
  {9b01f3b0-ccaf-405a-9bcf-f724f4c1a453}, ! Version UUID
  1366305583,                             ! Creation Timestamp
  1366305583,                             ! Version Timestamp
  {19741996-d22c-45af-909e-0a125d480fc8}; ! Name of Object 1

