
OS:Version,
  {786618b5-437a-4a3a-933c-cce22f60c2f2}, ! Handle
  0.9.3;                                  ! Version Identifier

OS:SizingPeriod:DesignDay,
  {00b62e4d-ab30-4903-9fcd-372e7c9e9831}, ! Handle
  SIOUX_CITY Ann Clg 2% Condns DP=>MDB,   ! Name
  27.7,                                   ! Maximum Dry-Bulb Temperature {C}
  11.4,                                   ! Daily Dry-Bulb Temperature Range {deltaC}
  22.3,                                   ! Humidity Indicating Conditions at Maximum Dry-Bulb {BasedOnField A3}
  97353,                                  ! Barometric Pressure {Pa}
  6.3,                                    ! Wind Speed {m/s}
  180,                                    ! Wind Direction {deg}
  0,                                      ! Sky Clearness
  0,                                      ! Rain Indicator
  0,                                      ! Snow Indicator
  21,                                     ! Day of Month
  7,                                      ! Month
  SummerDesignDay,                        ! Day Type
  0,                                      ! Daylight Saving Time Indicator
  Dewpoint,                               ! Humidity Indicating Type
  ,                                       ! Humidity Indicating Day Schedule Name
  DefaultMultipliers,                     ! Dry-Bulb Temperature Range Modifier Type
  ,                                       ! Dry-Bulb Temperature Range Modifier Schedule Name
  ASHRAETau,                              ! Solar Model Indicator
  ,                                       ! Beam Solar Day Schedule Name
  ,                                       ! Diffuse Solar Day Schedule Name
  0.409,                                  ! ASHRAE Taub {dimensionless}
  2.217;                                  ! ASHRAE Taud {dimensionless}

OS:ComponentData,
  {19b961e5-8b01-4ac0-b27d-cc32dd61983c}, ! Handle
  Component Data 1,                       ! Name
  {6eaa607a-8a73-454c-b383-a190187a2ae7}, ! UUID
  {c3701bcc-92ea-4e37-b71c-84e593c14953}, ! Version UUID
  1366307239,                             ! Creation Timestamp
  1366307239,                             ! Version Timestamp
  {00b62e4d-ab30-4903-9fcd-372e7c9e9831}; ! Name of Object 1

