
OS:Version,
  {74bffe83-73b1-404a-baf5-9c88cbdef118}, ! Handle
  0.9.3;                                  ! Version Identifier

OS:SizingPeriod:DesignDay,
  {febaced8-9774-42a7-9159-18ed600dde8d}, ! Handle
  Willmar Ann Htg Wind 99.6% Condns WS=>MCDB, ! Name
  -11.4,                                  ! Maximum Dry-Bulb Temperature {C}
  0,                                      ! Daily Dry-Bulb Temperature Range {deltaC}
  -11.4,                                  ! Humidity Indicating Conditions at Maximum Dry-Bulb {BasedOnField A3}
  97249,                                  ! Barometric Pressure {Pa}
  13.3,                                   ! Wind Speed {m/s}
  300,                                    ! Wind Direction {deg}
  0,                                      ! Sky Clearness
  0,                                      ! Rain Indicator
  0,                                      ! Snow Indicator
  21,                                     ! Day of Month
  1,                                      ! Month
  WinterDesignDay,                        ! Day Type
  0,                                      ! Daylight Saving Time Indicator
  Wetbulb,                                ! Humidity Indicating Type
  ,                                       ! Humidity Indicating Day Schedule Name
  DefaultMultipliers,                     ! Dry-Bulb Temperature Range Modifier Type
  ,                                       ! Dry-Bulb Temperature Range Modifier Schedule Name
  ASHRAEClearSky;                         ! Solar Model Indicator

OS:ComponentData,
  {a5754f93-a652-4830-af13-6eff1053ad88}, ! Handle
  Component Data 1,                       ! Name
  {cdcdd4c9-b7f4-43dc-83d6-c8bd12e74237}, ! UUID
  {157830e0-a7e7-410f-b3ea-b4b8dc9e4057}, ! Version UUID
  1366308456,                             ! Creation Timestamp
  1366308456,                             ! Version Timestamp
  {febaced8-9774-42a7-9159-18ed600dde8d}; ! Name of Object 1

