
OS:Version,
  {4c0deee8-bb96-4b7e-9f70-87ead21b3bc9}, ! Handle
  0.9.3;                                  ! Version Identifier

OS:SizingPeriod:DesignDay,
  {fbe3f5b2-b057-4fdc-8414-46c75e3ee434}, ! Handle
  Presque Isle Municip Ann Htg 99% Condns DB, ! Name
  -25.7,                                  ! Maximum Dry-Bulb Temperature {C}
  0,                                      ! Daily Dry-Bulb Temperature Range {deltaC}
  -25.7,                                  ! Humidity Indicating Conditions at Maximum Dry-Bulb {BasedOnField A3}
  99382,                                  ! Barometric Pressure {Pa}
  1.4,                                    ! Wind Speed {m/s}
  290,                                    ! Wind Direction {deg}
  0,                                      ! Sky Clearness
  0,                                      ! Rain Indicator
  0,                                      ! Snow Indicator
  21,                                     ! Day of Month
  1,                                      ! Month
  WinterDesignDay,                        ! Day Type
  0,                                      ! Daylight Saving Time Indicator
  Wetbulb,                                ! Humidity Indicating Type
  ,                                       ! Humidity Indicating Day Schedule Name
  DefaultMultipliers,                     ! Dry-Bulb Temperature Range Modifier Type
  ,                                       ! Dry-Bulb Temperature Range Modifier Schedule Name
  ASHRAEClearSky;                         ! Solar Model Indicator

OS:ComponentData,
  {07c9d534-e68e-4265-a3b7-e2d11bb84f4e}, ! Handle
  Component Data 1,                       ! Name
  {4d7f1b22-54cc-4203-a181-5a254072abda}, ! UUID
  {34e7b2c6-c1f1-41ac-b5a0-f72ff12c3552}, ! Version UUID
  1366307917,                             ! Creation Timestamp
  1366307917,                             ! Version Timestamp
  {fbe3f5b2-b057-4fdc-8414-46c75e3ee434}; ! Name of Object 1

