
OS:Version,
  {a8281964-77ee-44f5-a831-7f20e49db353}, ! Handle
  0.9.3;                                  ! Version Identifier

OS:SizingPeriod:DesignDay,
  {78bea4a0-40b8-408c-85ba-c16f4f9f92b8}, ! Handle
  Pellston Emmet County Ap Ann Clg .4% Condns DP=>MDB, ! Name
  25.8,                                   ! Maximum Dry-Bulb Temperature {C}
  13.1,                                   ! Daily Dry-Bulb Temperature Range {deltaC}
  21.7,                                   ! Humidity Indicating Conditions at Maximum Dry-Bulb {BasedOnField A3}
  98733,                                  ! Barometric Pressure {Pa}
  5.6,                                    ! Wind Speed {m/s}
  250,                                    ! Wind Direction {deg}
  0,                                      ! Sky Clearness
  0,                                      ! Rain Indicator
  0,                                      ! Snow Indicator
  21,                                     ! Day of Month
  7,                                      ! Month
  SummerDesignDay,                        ! Day Type
  0,                                      ! Daylight Saving Time Indicator
  Dewpoint,                               ! Humidity Indicating Type
  ,                                       ! Humidity Indicating Day Schedule Name
  DefaultMultipliers,                     ! Dry-Bulb Temperature Range Modifier Type
  ,                                       ! Dry-Bulb Temperature Range Modifier Schedule Name
  ASHRAETau,                              ! Solar Model Indicator
  ,                                       ! Beam Solar Day Schedule Name
  ,                                       ! Diffuse Solar Day Schedule Name
  0.414,                                  ! ASHRAE Taub {dimensionless}
  2.197;                                  ! ASHRAE Taud {dimensionless}

OS:ComponentData,
  {bc12007b-9dfe-4e67-bb56-3157c55d6355}, ! Handle
  Component Data 1,                       ! Name
  {91568f90-4fb6-49bd-beb1-210516855723}, ! UUID
  {4c7dde27-8cc9-4ac6-b9aa-5be7ef363592}, ! Version UUID
  1366308088,                             ! Creation Timestamp
  1366308088,                             ! Version Timestamp
  {78bea4a0-40b8-408c-85ba-c16f4f9f92b8}; ! Name of Object 1

