
OS:Version,
  {1f6cfa4f-190b-43d6-81ab-e4d96b6350c5}, ! Handle
  0.9.3;                                  ! Version Identifier

OS:SizingPeriod:DesignDay,
  {4063f6f0-3dce-4960-acf5-696e2c219bda}, ! Handle
  POCATELLO Ann Htg Wind 99% Condns WS=>MCDB, ! Name
  2.4,                                    ! Maximum Dry-Bulb Temperature {C}
  0,                                      ! Daily Dry-Bulb Temperature Range {deltaC}
  2.4,                                    ! Humidity Indicating Conditions at Maximum Dry-Bulb {BasedOnField A3}
  85966,                                  ! Barometric Pressure {Pa}
  13.4,                                   ! Wind Speed {m/s}
  30,                                     ! Wind Direction {deg}
  0,                                      ! Sky Clearness
  0,                                      ! Rain Indicator
  0,                                      ! Snow Indicator
  21,                                     ! Day of Month
  12,                                     ! Month
  WinterDesignDay,                        ! Day Type
  0,                                      ! Daylight Saving Time Indicator
  Wetbulb,                                ! Humidity Indicating Type
  ,                                       ! Humidity Indicating Day Schedule Name
  DefaultMultipliers,                     ! Dry-Bulb Temperature Range Modifier Type
  ,                                       ! Dry-Bulb Temperature Range Modifier Schedule Name
  ASHRAEClearSky;                         ! Solar Model Indicator

OS:ComponentData,
  {6b995865-4809-4ae1-9804-e3e7f5d859a0}, ! Handle
  Component Data 1,                       ! Name
  {959f5601-c04d-42ca-b8e1-9efba27a4932}, ! UUID
  {b20a697a-11df-4c4f-a8de-37095c2a6065}, ! Version UUID
  1366307298,                             ! Creation Timestamp
  1366307298,                             ! Version Timestamp
  {4063f6f0-3dce-4960-acf5-696e2c219bda}; ! Name of Object 1

