
OS:Version,
  {8ce6f002-8034-4203-adc1-284b48ce5f0a}, ! Handle
  0.9.3;                                  ! Version Identifier

OS:SizingPeriod:DesignDay,
  {1ce74817-ed47-49ba-9acd-4432c05bb063}, ! Handle
  Omaha Eppley Airfield Ann Clg 1% Condns WB=>MDB, ! Name
  31,                                     ! Maximum Dry-Bulb Temperature {C}
  11,                                     ! Daily Dry-Bulb Temperature Range {deltaC}
  25.2,                                   ! Humidity Indicating Conditions at Maximum Dry-Bulb {BasedOnField A3}
  97784,                                  ! Barometric Pressure {Pa}
  6.1,                                    ! Wind Speed {m/s}
  180,                                    ! Wind Direction {deg}
  0,                                      ! Sky Clearness
  0,                                      ! Rain Indicator
  0,                                      ! Snow Indicator
  21,                                     ! Day of Month
  7,                                      ! Month
  SummerDesignDay,                        ! Day Type
  0,                                      ! Daylight Saving Time Indicator
  Wetbulb,                                ! Humidity Indicating Type
  ,                                       ! Humidity Indicating Day Schedule Name
  DefaultMultipliers,                     ! Dry-Bulb Temperature Range Modifier Type
  ,                                       ! Dry-Bulb Temperature Range Modifier Schedule Name
  ASHRAETau,                              ! Solar Model Indicator
  ,                                       ! Beam Solar Day Schedule Name
  ,                                       ! Diffuse Solar Day Schedule Name
  0.421,                                  ! ASHRAE Taub {dimensionless}
  2.196;                                  ! ASHRAE Taud {dimensionless}

OS:ComponentData,
  {9987730e-5baa-487a-a91c-973d58504714}, ! Handle
  Component Data 1,                       ! Name
  {b311cffb-2271-480c-9009-0518e253b389}, ! UUID
  {c4ec272a-0fb2-464b-87a0-7c6a518b4e85}, ! Version UUID
  1366309173,                             ! Creation Timestamp
  1366309173,                             ! Version Timestamp
  {1ce74817-ed47-49ba-9acd-4432c05bb063}; ! Name of Object 1

