
OS:Version,
  {9778a3a1-5446-4ad5-a634-5f964472b184}, ! Handle
  0.9.3;                                  ! Version Identifier

OS:SizingPeriod:DesignDay,
  {ec953d00-f284-4eaa-9ba7-e9ab2bd08680}, ! Handle
  Rapid City Ann Clg 2% Condns WB=>MDB,   ! Name
  28.7,                                   ! Maximum Dry-Bulb Temperature {C}
  14.8,                                   ! Daily Dry-Bulb Temperature Range {deltaC}
  19.8,                                   ! Humidity Indicating Conditions at Maximum Dry-Bulb {BasedOnField A3}
  90246,                                  ! Barometric Pressure {Pa}
  6,                                      ! Wind Speed {m/s}
  180,                                    ! Wind Direction {deg}
  0,                                      ! Sky Clearness
  0,                                      ! Rain Indicator
  0,                                      ! Snow Indicator
  21,                                     ! Day of Month
  7,                                      ! Month
  SummerDesignDay,                        ! Day Type
  0,                                      ! Daylight Saving Time Indicator
  Wetbulb,                                ! Humidity Indicating Type
  ,                                       ! Humidity Indicating Day Schedule Name
  DefaultMultipliers,                     ! Dry-Bulb Temperature Range Modifier Type
  ,                                       ! Dry-Bulb Temperature Range Modifier Schedule Name
  ASHRAETau,                              ! Solar Model Indicator
  ,                                       ! Beam Solar Day Schedule Name
  ,                                       ! Diffuse Solar Day Schedule Name
  0.41,                                   ! ASHRAE Taub {dimensionless}
  2.134;                                  ! ASHRAE Taud {dimensionless}

OS:ComponentData,
  {29ea2f8f-481e-4a25-8e16-78cee68940d1}, ! Handle
  Component Data 1,                       ! Name
  {ba819ef1-d1c1-44bd-ace8-3a9e52589b81}, ! UUID
  {01247b3d-5f9a-454d-99a0-790b27b23949}, ! Version UUID
  1366310446,                             ! Creation Timestamp
  1366310446,                             ! Version Timestamp
  {ec953d00-f284-4eaa-9ba7-e9ab2bd08680}; ! Name of Object 1

