
OS:Version,
  {00ebffdf-7fef-4736-8c08-c874aa243c06}, ! Handle
  0.9.3;                                  ! Version Identifier

OS:SizingPeriod:DesignDay,
  {4b84d806-513e-46a8-a335-72edec60a5c8}, ! Handle
  Red Bluff Municipal Arpt Ann Clg 2% Condns Enth=>MDB, ! Name
  33.4,                                   ! Maximum Dry-Bulb Temperature {C}
  16.9,                                   ! Daily Dry-Bulb Temperature Range {deltaC}
  60600,                                  ! Humidity Indicating Conditions at Maximum Dry-Bulb {BasedOnField A3}
  100058,                                 ! Barometric Pressure {Pa}
  3.9,                                    ! Wind Speed {m/s}
  150,                                    ! Wind Direction {deg}
  0,                                      ! Sky Clearness
  0,                                      ! Rain Indicator
  0,                                      ! Snow Indicator
  21,                                     ! Day of Month
  7,                                      ! Month
  SummerDesignDay,                        ! Day Type
  0,                                      ! Daylight Saving Time Indicator
  Enthalpy,                               ! Humidity Indicating Type
  ,                                       ! Humidity Indicating Day Schedule Name
  DefaultMultipliers,                     ! Dry-Bulb Temperature Range Modifier Type
  ,                                       ! Dry-Bulb Temperature Range Modifier Schedule Name
  ASHRAETau,                              ! Solar Model Indicator
  ,                                       ! Beam Solar Day Schedule Name
  ,                                       ! Diffuse Solar Day Schedule Name
  0.364,                                  ! ASHRAE Taub {dimensionless}
  2.504;                                  ! ASHRAE Taud {dimensionless}

OS:ComponentData,
  {51e703eb-426e-491e-ade9-73b28dd305ae}, ! Handle
  Component Data 1,                       ! Name
  {4877036e-fc51-4571-bed4-7cf408b3f928}, ! UUID
  {abbb7453-a3de-47ed-92ca-59639e96d95b}, ! Version UUID
  1366306547,                             ! Creation Timestamp
  1366306547,                             ! Version Timestamp
  {4b84d806-513e-46a8-a335-72edec60a5c8}; ! Name of Object 1

