
OS:Version,
  {81ae1dff-af24-45b5-a600-74901bee8dcb}, ! Handle
  0.9.3;                                  ! Version Identifier

OS:SizingPeriod:DesignDay,
  {bcd179ff-9cf8-493e-a90e-1a1ac706c60f}, ! Handle
  Portland Ann Clg 2% Condns DP=>MDB,     ! Name
  23.5,                                   ! Maximum Dry-Bulb Temperature {C}
  10,                                     ! Daily Dry-Bulb Temperature Range {deltaC}
  19.8,                                   ! Humidity Indicating Conditions at Maximum Dry-Bulb {BasedOnField A3}
  101097,                                 ! Barometric Pressure {Pa}
  4.9,                                    ! Wind Speed {m/s}
  260,                                    ! Wind Direction {deg}
  0,                                      ! Sky Clearness
  0,                                      ! Rain Indicator
  0,                                      ! Snow Indicator
  21,                                     ! Day of Month
  7,                                      ! Month
  SummerDesignDay,                        ! Day Type
  0,                                      ! Daylight Saving Time Indicator
  Dewpoint,                               ! Humidity Indicating Type
  ,                                       ! Humidity Indicating Day Schedule Name
  DefaultMultipliers,                     ! Dry-Bulb Temperature Range Modifier Type
  ,                                       ! Dry-Bulb Temperature Range Modifier Schedule Name
  ASHRAETau,                              ! Solar Model Indicator
  ,                                       ! Beam Solar Day Schedule Name
  ,                                       ! Diffuse Solar Day Schedule Name
  0.477,                                  ! ASHRAE Taub {dimensionless}
  1.97;                                   ! ASHRAE Taud {dimensionless}

OS:ComponentData,
  {9b715653-c26e-487e-9a8e-633bc5bd3c48}, ! Handle
  Component Data 1,                       ! Name
  {11d2aaea-980f-4725-b419-b1a2bc441d15}, ! UUID
  {443d0a59-face-4719-b1eb-24866d9e4928}, ! Version UUID
  1366307912,                             ! Creation Timestamp
  1366307912,                             ! Version Timestamp
  {bcd179ff-9cf8-493e-a90e-1a1ac706c60f}; ! Name of Object 1

