
OS:Version,
  {c947e4f9-2871-4fa2-9fd3-b9f5d7846c7d}, ! Handle
  0.9.3;                                  ! Version Identifier

OS:SizingPeriod:DesignDay,
  {c9d62884-8b34-4b9f-872b-280bc436a168}, ! Handle
  Topeka Municipal Ap Ann Clg .4% Condns WB=>MDB, ! Name
  32.8,                                   ! Maximum Dry-Bulb Temperature {C}
  11.3,                                   ! Daily Dry-Bulb Temperature Range {deltaC}
  26.1,                                   ! Humidity Indicating Conditions at Maximum Dry-Bulb {BasedOnField A3}
  98135,                                  ! Barometric Pressure {Pa}
  4.9,                                    ! Wind Speed {m/s}
  200,                                    ! Wind Direction {deg}
  0,                                      ! Sky Clearness
  0,                                      ! Rain Indicator
  0,                                      ! Snow Indicator
  21,                                     ! Day of Month
  7,                                      ! Month
  SummerDesignDay,                        ! Day Type
  0,                                      ! Daylight Saving Time Indicator
  Wetbulb,                                ! Humidity Indicating Type
  ,                                       ! Humidity Indicating Day Schedule Name
  DefaultMultipliers,                     ! Dry-Bulb Temperature Range Modifier Type
  ,                                       ! Dry-Bulb Temperature Range Modifier Schedule Name
  ASHRAETau,                              ! Solar Model Indicator
  ,                                       ! Beam Solar Day Schedule Name
  ,                                       ! Diffuse Solar Day Schedule Name
  0.434,                                  ! ASHRAE Taub {dimensionless}
  2.183;                                  ! ASHRAE Taud {dimensionless}

OS:ComponentData,
  {e5c24808-1ba4-46c5-86f5-a7f579c3b610}, ! Handle
  Component Data 1,                       ! Name
  {6874e0f8-9688-4fa4-89a2-69fb18e92bab}, ! UUID
  {1fac429a-f11f-4478-86fa-b26408d73841}, ! Version UUID
  1366307587,                             ! Creation Timestamp
  1366307587,                             ! Version Timestamp
  {c9d62884-8b34-4b9f-872b-280bc436a168}; ! Name of Object 1

