
OS:Version,
  {c1887d73-b7b5-43e5-b828-0e12aa87ca6a}, ! Handle
  0.9.3;                                  ! Version Identifier

OS:SizingPeriod:DesignDay,
  {52e65e61-9256-4c65-bd0d-feeb22a95cfc}, ! Handle
  WILMINGTON Ann Clg 2% Condns WB=>MDB,   ! Name
  29.8,                                   ! Maximum Dry-Bulb Temperature {C}
  8.7,                                    ! Daily Dry-Bulb Temperature Range {deltaC}
  25.7,                                   ! Humidity Indicating Conditions at Maximum Dry-Bulb {BasedOnField A3}
  101217,                                 ! Barometric Pressure {Pa}
  4.4,                                    ! Wind Speed {m/s}
  240,                                    ! Wind Direction {deg}
  0,                                      ! Sky Clearness
  0,                                      ! Rain Indicator
  0,                                      ! Snow Indicator
  21,                                     ! Day of Month
  7,                                      ! Month
  SummerDesignDay,                        ! Day Type
  0,                                      ! Daylight Saving Time Indicator
  Wetbulb,                                ! Humidity Indicating Type
  ,                                       ! Humidity Indicating Day Schedule Name
  DefaultMultipliers,                     ! Dry-Bulb Temperature Range Modifier Type
  ,                                       ! Dry-Bulb Temperature Range Modifier Schedule Name
  ASHRAETau,                              ! Solar Model Indicator
  ,                                       ! Beam Solar Day Schedule Name
  ,                                       ! Diffuse Solar Day Schedule Name
  0.584,                                  ! ASHRAE Taub {dimensionless}
  1.738;                                  ! ASHRAE Taud {dimensionless}

OS:ComponentData,
  {efa0c815-0480-4fff-ab2f-feee15961c2d}, ! Handle
  Component Data 1,                       ! Name
  {0d0f7f74-d4e0-4d12-9750-3fb2e2ab4f9e}, ! UUID
  {c342e6f0-1053-4553-9de4-40f8662bc936}, ! Version UUID
  1366308986,                             ! Creation Timestamp
  1366308986,                             ! Version Timestamp
  {52e65e61-9256-4c65-bd0d-feeb22a95cfc}; ! Name of Object 1

