
OS:Version,
  {a83d22ed-b1bb-4d54-a95a-1accd491031a}, ! Handle
  0.9.3;                                  ! Version Identifier

OS:SizingPeriod:DesignDay,
  {8247831f-8f86-419c-a4bb-8835d68345ac}, ! Handle
  Tallahassee Ann Clg 2% Condns WB=>MDB,  ! Name
  30.6,                                   ! Maximum Dry-Bulb Temperature {C}
  10.6,                                   ! Daily Dry-Bulb Temperature Range {deltaC}
  25.7,                                   ! Humidity Indicating Conditions at Maximum Dry-Bulb {BasedOnField A3}
  101073,                                 ! Barometric Pressure {Pa}
  3.4,                                    ! Wind Speed {m/s}
  10,                                     ! Wind Direction {deg}
  0,                                      ! Sky Clearness
  0,                                      ! Rain Indicator
  0,                                      ! Snow Indicator
  21,                                     ! Day of Month
  7,                                      ! Month
  SummerDesignDay,                        ! Day Type
  0,                                      ! Daylight Saving Time Indicator
  Wetbulb,                                ! Humidity Indicating Type
  ,                                       ! Humidity Indicating Day Schedule Name
  DefaultMultipliers,                     ! Dry-Bulb Temperature Range Modifier Type
  ,                                       ! Dry-Bulb Temperature Range Modifier Schedule Name
  ASHRAETau,                              ! Solar Model Indicator
  ,                                       ! Beam Solar Day Schedule Name
  ,                                       ! Diffuse Solar Day Schedule Name
  0.537,                                  ! ASHRAE Taub {dimensionless}
  1.879;                                  ! ASHRAE Taud {dimensionless}

OS:ComponentData,
  {1f6e3c30-6ea3-474e-8b58-dcec9b49f29a}, ! Handle
  Component Data 1,                       ! Name
  {de3b5969-8eba-4271-9b99-f31532bdae85}, ! UUID
  {ee5ab0a4-c715-428b-ad03-58affed880bd}, ! Version UUID
  1366306924,                             ! Creation Timestamp
  1366306924,                             ! Version Timestamp
  {8247831f-8f86-419c-a4bb-8835d68345ac}; ! Name of Object 1

