
OS:Version,
  {b965a1bf-205a-4e0c-93c1-8783aeb58256}, ! Handle
  0.9.3;                                  ! Version Identifier

OS:SizingPeriod:DesignDay,
  {5d1ef8a5-28a4-4585-8f59-c70303780837}, ! Handle
  Yuma Ann Htg 99.6% Condns DB,           ! Name
  5.5,                                    ! Maximum Dry-Bulb Temperature {C}
  0,                                      ! Daily Dry-Bulb Temperature Range {deltaC}
  5.5,                                    ! Humidity Indicating Conditions at Maximum Dry-Bulb {BasedOnField A3}
  100582,                                 ! Barometric Pressure {Pa}
  2,                                      ! Wind Speed {m/s}
  30,                                     ! Wind Direction {deg}
  0,                                      ! Sky Clearness
  0,                                      ! Rain Indicator
  0,                                      ! Snow Indicator
  21,                                     ! Day of Month
  12,                                     ! Month
  WinterDesignDay,                        ! Day Type
  0,                                      ! Daylight Saving Time Indicator
  Wetbulb,                                ! Humidity Indicating Type
  ,                                       ! Humidity Indicating Day Schedule Name
  DefaultMultipliers,                     ! Dry-Bulb Temperature Range Modifier Type
  ,                                       ! Dry-Bulb Temperature Range Modifier Schedule Name
  ASHRAEClearSky;                         ! Solar Model Indicator

OS:ComponentData,
  {2df37f36-0c45-4487-929a-96e9ef5246f3}, ! Handle
  Component Data 1,                       ! Name
  {cf1b4b4d-5307-4530-92a8-98d96e347d99}, ! UUID
  {2d207bd9-3aa3-406e-b42a-953ecbe4a4c6}, ! Version UUID
  1366306333,                             ! Creation Timestamp
  1366306333,                             ! Version Timestamp
  {5d1ef8a5-28a4-4585-8f59-c70303780837}; ! Name of Object 1

