
OS:Version,
  {8f472222-6565-4da0-90ed-172253910a03}, ! Handle
  0.9.3;                                  ! Version Identifier

OS:SizingPeriod:DesignDay,
  {c4e77b3b-5951-402d-974b-2d8163b650d9}, ! Handle
  Miami Intl Ap Ann Clg 2% Condns WB=>MDB, ! Name
  30.1,                                   ! Maximum Dry-Bulb Temperature {C}
  6.7,                                    ! Daily Dry-Bulb Temperature Range {deltaC}
  26.1,                                   ! Humidity Indicating Conditions at Maximum Dry-Bulb {BasedOnField A3}
  101193,                                 ! Barometric Pressure {Pa}
  4.5,                                    ! Wind Speed {m/s}
  140,                                    ! Wind Direction {deg}
  0,                                      ! Sky Clearness
  0,                                      ! Rain Indicator
  0,                                      ! Snow Indicator
  21,                                     ! Day of Month
  7,                                      ! Month
  SummerDesignDay,                        ! Day Type
  0,                                      ! Daylight Saving Time Indicator
  Wetbulb,                                ! Humidity Indicating Type
  ,                                       ! Humidity Indicating Day Schedule Name
  DefaultMultipliers,                     ! Dry-Bulb Temperature Range Modifier Type
  ,                                       ! Dry-Bulb Temperature Range Modifier Schedule Name
  ASHRAETau,                              ! Solar Model Indicator
  ,                                       ! Beam Solar Day Schedule Name
  ,                                       ! Diffuse Solar Day Schedule Name
  0.528,                                  ! ASHRAE Taub {dimensionless}
  1.905;                                  ! ASHRAE Taud {dimensionless}

OS:ComponentData,
  {7bc7d762-6052-4c96-800e-73f1b7fde4a4}, ! Handle
  Component Data 1,                       ! Name
  {ec6b8bf9-990e-4480-b788-8613d3f4ce88}, ! UUID
  {03cb3b15-e9ec-481e-ac42-46c0c6868b25}, ! Version UUID
  1366306867,                             ! Creation Timestamp
  1366306867,                             ! Version Timestamp
  {c4e77b3b-5951-402d-974b-2d8163b650d9}; ! Name of Object 1

