
OS:Version,
  {edf8bebe-dec4-43ce-8409-1f2ae3023655}, ! Handle
  0.9.3;                                  ! Version Identifier

OS:SizingPeriod:DesignDay,
  {68f4ff8f-8dfc-46ee-8526-cc45a16a8b67}, ! Handle
  Parkersburg Wood County Ap Ann Clg .4% Condns WB=>MDB, ! Name
  30.2,                                   ! Maximum Dry-Bulb Temperature {C}
  10.8,                                   ! Daily Dry-Bulb Temperature Range {deltaC}
  24.9,                                   ! Humidity Indicating Conditions at Maximum Dry-Bulb {BasedOnField A3}
  98322,                                  ! Barometric Pressure {Pa}
  3.4,                                    ! Wind Speed {m/s}
  250,                                    ! Wind Direction {deg}
  0,                                      ! Sky Clearness
  0,                                      ! Rain Indicator
  0,                                      ! Snow Indicator
  21,                                     ! Day of Month
  7,                                      ! Month
  SummerDesignDay,                        ! Day Type
  0,                                      ! Daylight Saving Time Indicator
  Wetbulb,                                ! Humidity Indicating Type
  ,                                       ! Humidity Indicating Day Schedule Name
  DefaultMultipliers,                     ! Dry-Bulb Temperature Range Modifier Type
  ,                                       ! Dry-Bulb Temperature Range Modifier Schedule Name
  ASHRAETau,                              ! Solar Model Indicator
  ,                                       ! Beam Solar Day Schedule Name
  ,                                       ! Diffuse Solar Day Schedule Name
  0.5,                                    ! ASHRAE Taub {dimensionless}
  1.892;                                  ! ASHRAE Taud {dimensionless}

OS:ComponentData,
  {7f0bafd8-8b62-425e-a04b-44a444f4ba8d}, ! Handle
  Component Data 1,                       ! Name
  {5948daad-8ab7-4ba5-b5b2-ef85a670aee0}, ! UUID
  {e610d759-d6b9-4bd9-85c6-cb7e2460e01c}, ! Version UUID
  1366311676,                             ! Creation Timestamp
  1366311676,                             ! Version Timestamp
  {68f4ff8f-8dfc-46ee-8526-cc45a16a8b67}; ! Name of Object 1

