
OS:Version,
  {fa451878-df99-41e0-b61c-e300a2f228bd}, ! Handle
  0.9.3;                                  ! Version Identifier

OS:SizingPeriod:DesignDay,
  {a94b08d8-c383-47bd-8409-3a2f7a64237a}, ! Handle
  Toledo Ann Clg .4% Condns DB=>MWB,      ! Name
  32.9,                                   ! Maximum Dry-Bulb Temperature {C}
  11.5,                                   ! Daily Dry-Bulb Temperature Range {deltaC}
  23.5,                                   ! Humidity Indicating Conditions at Maximum Dry-Bulb {BasedOnField A3}
  98816,                                  ! Barometric Pressure {Pa}
  4.8,                                    ! Wind Speed {m/s}
  230,                                    ! Wind Direction {deg}
  0,                                      ! Sky Clearness
  0,                                      ! Rain Indicator
  0,                                      ! Snow Indicator
  21,                                     ! Day of Month
  7,                                      ! Month
  SummerDesignDay,                        ! Day Type
  0,                                      ! Daylight Saving Time Indicator
  Wetbulb,                                ! Humidity Indicating Type
  ,                                       ! Humidity Indicating Day Schedule Name
  DefaultMultipliers,                     ! Dry-Bulb Temperature Range Modifier Type
  ,                                       ! Dry-Bulb Temperature Range Modifier Schedule Name
  ASHRAETau,                              ! Solar Model Indicator
  ,                                       ! Beam Solar Day Schedule Name
  ,                                       ! Diffuse Solar Day Schedule Name
  0.45,                                   ! ASHRAE Taub {dimensionless}
  2.065;                                  ! ASHRAE Taud {dimensionless}

OS:ComponentData,
  {f4b6e33d-8981-49ff-95e2-7de6d824f75a}, ! Handle
  Component Data 1,                       ! Name
  {3404812d-1cc8-4dcf-8aaf-de33e173ef8c}, ! UUID
  {713976f7-8b2a-4ade-8866-d961ff5603eb}, ! Version UUID
  1366309850,                             ! Creation Timestamp
  1366309850,                             ! Version Timestamp
  {a94b08d8-c383-47bd-8409-3a2f7a64237a}; ! Name of Object 1

