
OS:Version,
  {5ffed3a0-a577-4c46-b3bd-b6be5825f7c2}, ! Handle
  0.9.3;                                  ! Version Identifier

OS:SizingPeriod:DesignDay,
  {ec8647c5-7400-4c86-a2f9-1b2d09442068}, ! Handle
  TOLEDO Ann Htg 99% Condns DB,           ! Name
  -14.8,                                  ! Maximum Dry-Bulb Temperature {C}
  0,                                      ! Daily Dry-Bulb Temperature Range {deltaC}
  -14.8,                                  ! Humidity Indicating Conditions at Maximum Dry-Bulb {BasedOnField A3}
  98816,                                  ! Barometric Pressure {Pa}
  4.2,                                    ! Wind Speed {m/s}
  240,                                    ! Wind Direction {deg}
  0,                                      ! Sky Clearness
  0,                                      ! Rain Indicator
  0,                                      ! Snow Indicator
  21,                                     ! Day of Month
  1,                                      ! Month
  WinterDesignDay,                        ! Day Type
  0,                                      ! Daylight Saving Time Indicator
  Wetbulb,                                ! Humidity Indicating Type
  ,                                       ! Humidity Indicating Day Schedule Name
  DefaultMultipliers,                     ! Dry-Bulb Temperature Range Modifier Type
  ,                                       ! Dry-Bulb Temperature Range Modifier Schedule Name
  ASHRAEClearSky;                         ! Solar Model Indicator

OS:ComponentData,
  {f4cb1ae8-b79f-4e04-b13a-c45a40591674}, ! Handle
  Component Data 1,                       ! Name
  {33394f3a-4c65-40d3-94fd-888968280dc5}, ! UUID
  {139bc25e-3317-4740-9779-ae630008685c}, ! Version UUID
  1366309844,                             ! Creation Timestamp
  1366309844,                             ! Version Timestamp
  {ec8647c5-7400-4c86-a2f9-1b2d09442068}; ! Name of Object 1

