
OS:Version,
  {ce8d61fe-fca0-4ccc-9679-1079e364e1d0}, ! Handle
  0.9.3;                                  ! Version Identifier

OS:SizingPeriod:DesignDay,
  {d398fa03-5c83-4df2-9b51-bc732a5a22b6}, ! Handle
  SAN_DIEGO Ann Htg 99% Condns DB,        ! Name
  8.2,                                    ! Maximum Dry-Bulb Temperature {C}
  0,                                      ! Daily Dry-Bulb Temperature Range {deltaC}
  8.2,                                    ! Humidity Indicating Conditions at Maximum Dry-Bulb {BasedOnField A3}
  101217,                                 ! Barometric Pressure {Pa}
  1.3,                                    ! Wind Speed {m/s}
  340,                                    ! Wind Direction {deg}
  0,                                      ! Sky Clearness
  0,                                      ! Rain Indicator
  0,                                      ! Snow Indicator
  21,                                     ! Day of Month
  12,                                     ! Month
  WinterDesignDay,                        ! Day Type
  0,                                      ! Daylight Saving Time Indicator
  Wetbulb,                                ! Humidity Indicating Type
  ,                                       ! Humidity Indicating Day Schedule Name
  DefaultMultipliers,                     ! Dry-Bulb Temperature Range Modifier Type
  ,                                       ! Dry-Bulb Temperature Range Modifier Schedule Name
  ASHRAEClearSky;                         ! Solar Model Indicator

OS:ComponentData,
  {d4b56ce1-af3a-4c8e-8132-c3b94bc06a57}, ! Handle
  Component Data 1,                       ! Name
  {64a2dc09-c7c2-4469-b011-2dc9b6e50ee9}, ! UUID
  {d4aabf98-7ffe-461c-9c26-b029c2ad9dbf}, ! Version UUID
  1366306585,                             ! Creation Timestamp
  1366306585,                             ! Version Timestamp
  {d398fa03-5c83-4df2-9b51-bc732a5a22b6}; ! Name of Object 1

