
OS:Version,
  {ae872ae7-1815-4c06-afd4-89900be6a09d}, ! Handle
  0.9.3;                                  ! Version Identifier

OS:SizingPeriod:DesignDay,
  {c1b21e91-5cf1-494d-837a-550a63183419}, ! Handle
  Topeka Ann Clg 2% Condns DB=>MWB,       ! Name
  32.9,                                   ! Maximum Dry-Bulb Temperature {C}
  11.3,                                   ! Daily Dry-Bulb Temperature Range {deltaC}
  23.9,                                   ! Humidity Indicating Conditions at Maximum Dry-Bulb {BasedOnField A3}
  98123,                                  ! Barometric Pressure {Pa}
  4.9,                                    ! Wind Speed {m/s}
  200,                                    ! Wind Direction {deg}
  0,                                      ! Sky Clearness
  0,                                      ! Rain Indicator
  0,                                      ! Snow Indicator
  21,                                     ! Day of Month
  7,                                      ! Month
  SummerDesignDay,                        ! Day Type
  0,                                      ! Daylight Saving Time Indicator
  Wetbulb,                                ! Humidity Indicating Type
  ,                                       ! Humidity Indicating Day Schedule Name
  DefaultMultipliers,                     ! Dry-Bulb Temperature Range Modifier Type
  ,                                       ! Dry-Bulb Temperature Range Modifier Schedule Name
  ASHRAETau,                              ! Solar Model Indicator
  ,                                       ! Beam Solar Day Schedule Name
  ,                                       ! Diffuse Solar Day Schedule Name
  0.434,                                  ! ASHRAE Taub {dimensionless}
  2.183;                                  ! ASHRAE Taud {dimensionless}

OS:ComponentData,
  {02a7a624-0304-46cf-b42b-be83dc568eea}, ! Handle
  Component Data 1,                       ! Name
  {51b0d8ce-3862-4c93-8868-a0adf4fa0349}, ! UUID
  {013cd7e0-1e09-4f04-9695-1ddf02f6eff8}, ! Version UUID
  1366307584,                             ! Creation Timestamp
  1366307584,                             ! Version Timestamp
  {c1b21e91-5cf1-494d-837a-550a63183419}; ! Name of Object 1

