
OS:Version,
  {104b0527-3e3e-4a83-9282-7eac366110b8}, ! Handle
  0.9.3;                                  ! Version Identifier

OS:SizingPeriod:DesignDay,
  {4aa813a0-2f79-4219-b264-0d2331df6ecd}, ! Handle
  Manchester Airport Ann Clg 2% Condns DP=>MDB, ! Name
  25.6,                                   ! Maximum Dry-Bulb Temperature {C}
  10.9,                                   ! Daily Dry-Bulb Temperature Range {deltaC}
  21,                                     ! Humidity Indicating Conditions at Maximum Dry-Bulb {BasedOnField A3}
  100499,                                 ! Barometric Pressure {Pa}
  4.2,                                    ! Wind Speed {m/s}
  270,                                    ! Wind Direction {deg}
  0,                                      ! Sky Clearness
  0,                                      ! Rain Indicator
  0,                                      ! Snow Indicator
  21,                                     ! Day of Month
  7,                                      ! Month
  SummerDesignDay,                        ! Day Type
  0,                                      ! Daylight Saving Time Indicator
  Dewpoint,                               ! Humidity Indicating Type
  ,                                       ! Humidity Indicating Day Schedule Name
  DefaultMultipliers,                     ! Dry-Bulb Temperature Range Modifier Type
  ,                                       ! Dry-Bulb Temperature Range Modifier Schedule Name
  ASHRAETau,                              ! Solar Model Indicator
  ,                                       ! Beam Solar Day Schedule Name
  ,                                       ! Diffuse Solar Day Schedule Name
  0.466,                                  ! ASHRAE Taub {dimensionless}
  2.001;                                  ! ASHRAE Taud {dimensionless}

OS:ComponentData,
  {38bda2d0-58c5-4e5c-bdf9-02c65259e65d}, ! Handle
  Component Data 1,                       ! Name
  {8c3108f8-5657-4901-9a70-28fc08c99d46}, ! UUID
  {97be6a68-4e2b-4bbe-8267-69b8cb28dc0a}, ! Version UUID
  1366309265,                             ! Creation Timestamp
  1366309265,                             ! Version Timestamp
  {4aa813a0-2f79-4219-b264-0d2331df6ecd}; ! Name of Object 1

