
OS:Version,
  {ff174e11-dc68-4af0-b3db-f1f13d9550f0}, ! Handle
  0.9.3;                                  ! Version Identifier

OS:SizingPeriod:DesignDay,
  {65b8ba14-5ef8-43f4-9d2a-10152038aa6a}, ! Handle
  Watertown Ann Htg 99.6% Condns DB,      ! Name
  -20.1,                                  ! Maximum Dry-Bulb Temperature {C}
  0,                                      ! Daily Dry-Bulb Temperature Range {deltaC}
  -20.1,                                  ! Humidity Indicating Conditions at Maximum Dry-Bulb {BasedOnField A3}
  98311,                                  ! Barometric Pressure {Pa}
  2,                                      ! Wind Speed {m/s}
  290,                                    ! Wind Direction {deg}
  0,                                      ! Sky Clearness
  0,                                      ! Rain Indicator
  0,                                      ! Snow Indicator
  21,                                     ! Day of Month
  1,                                      ! Month
  WinterDesignDay,                        ! Day Type
  0,                                      ! Daylight Saving Time Indicator
  Wetbulb,                                ! Humidity Indicating Type
  ,                                       ! Humidity Indicating Day Schedule Name
  DefaultMultipliers,                     ! Dry-Bulb Temperature Range Modifier Type
  ,                                       ! Dry-Bulb Temperature Range Modifier Schedule Name
  ASHRAEClearSky;                         ! Solar Model Indicator

OS:ComponentData,
  {6712ccbb-0641-4c2a-8363-e46261cb73c2}, ! Handle
  Component Data 1,                       ! Name
  {dc0e2701-fcc3-4b74-8a6d-a7039d0fa6f0}, ! UUID
  {e0a8f6fc-e28d-4b30-9078-128dfaeffbc8}, ! Version UUID
  1366311590,                             ! Creation Timestamp
  1366311590,                             ! Version Timestamp
  {65b8ba14-5ef8-43f4-9d2a-10152038aa6a}; ! Name of Object 1

