
OS:Version,
  {59cf6461-581d-4f0e-bbb7-6961a1207d35}, ! Handle
  0.9.3;                                  ! Version Identifier

OS:SizingPeriod:DesignDay,
  {ce1b61a4-8bab-4358-b7e9-381ac30d7cf2}, ! Handle
  Roswell Industrial Air Park Ann Hum_n 99.6% Condns DP=>MCDB, ! Name
  2,                                      ! Maximum Dry-Bulb Temperature {C}
  0,                                      ! Daily Dry-Bulb Temperature Range {deltaC}
  -18.2,                                  ! Humidity Indicating Conditions at Maximum Dry-Bulb {BasedOnField A3}
  88660,                                  ! Barometric Pressure {Pa}
  2.8,                                    ! Wind Speed {m/s}
  180,                                    ! Wind Direction {deg}
  0,                                      ! Sky Clearness
  0,                                      ! Rain Indicator
  0,                                      ! Snow Indicator
  21,                                     ! Day of Month
  12,                                     ! Month
  WinterDesignDay,                        ! Day Type
  0,                                      ! Daylight Saving Time Indicator
  Dewpoint,                               ! Humidity Indicating Type
  ,                                       ! Humidity Indicating Day Schedule Name
  DefaultMultipliers,                     ! Dry-Bulb Temperature Range Modifier Type
  ,                                       ! Dry-Bulb Temperature Range Modifier Schedule Name
  ASHRAEClearSky;                         ! Solar Model Indicator

OS:ComponentData,
  {5430b020-a124-48d6-bff4-63ca246062c6}, ! Handle
  Component Data 1,                       ! Name
  {f97e7aea-495c-467b-a5dc-432ceb0688c4}, ! UUID
  {f367a8cb-de3c-4da0-b89c-f241686ac29d}, ! Version UUID
  1366309427,                             ! Creation Timestamp
  1366309427,                             ! Version Timestamp
  {ce1b61a4-8bab-4358-b7e9-381ac30d7cf2}; ! Name of Object 1

