
OS:Version,
  {e6ce8424-22f1-4b9c-aea6-a1a7d06c3f51}, ! Handle
  0.9.3;                                  ! Version Identifier

OS:SizingPeriod:DesignDay,
  {9d4ff93c-3aec-485d-b56c-136ccaf36b25}, ! Handle
  Waterville  Awos Ann Hum_n 99% Condns DP=>MCDB, ! Name
  -15.8,                                  ! Maximum Dry-Bulb Temperature {C}
  0,                                      ! Daily Dry-Bulb Temperature Range {deltaC}
  -27.5,                                  ! Humidity Indicating Conditions at Maximum Dry-Bulb {BasedOnField A3}
  100118,                                 ! Barometric Pressure {Pa}
  2.3,                                    ! Wind Speed {m/s}
  0,                                      ! Wind Direction {deg}
  0,                                      ! Sky Clearness
  0,                                      ! Rain Indicator
  0,                                      ! Snow Indicator
  21,                                     ! Day of Month
  1,                                      ! Month
  WinterDesignDay,                        ! Day Type
  0,                                      ! Daylight Saving Time Indicator
  Dewpoint,                               ! Humidity Indicating Type
  ,                                       ! Humidity Indicating Day Schedule Name
  DefaultMultipliers,                     ! Dry-Bulb Temperature Range Modifier Type
  ,                                       ! Dry-Bulb Temperature Range Modifier Schedule Name
  ASHRAEClearSky;                         ! Solar Model Indicator

OS:ComponentData,
  {fe97a2b5-3ded-4e28-9b36-6cbc18f62d4d}, ! Handle
  Component Data 1,                       ! Name
  {b0f45d9e-a82a-4605-b916-c7a7476456c4}, ! UUID
  {ad7a2a5b-c4db-4537-9e98-5217f65f5acb}, ! Version UUID
  1366307930,                             ! Creation Timestamp
  1366307930,                             ! Version Timestamp
  {9d4ff93c-3aec-485d-b56c-136ccaf36b25}; ! Name of Object 1

