
OS:Version,
  {e90711d3-a5b6-4549-a12f-b0ae0f90dfca}, ! Handle
  0.9.3;                                  ! Version Identifier

OS:SizingPeriod:DesignDay,
  {0f45f98c-00b6-4999-85e0-08c5e22c829b}, ! Handle
  St Louis Lambert IntL Arpt Ann Clg 1% Condns DP=>MDB, ! Name
  29.2,                                   ! Maximum Dry-Bulb Temperature {C}
  9.5,                                    ! Daily Dry-Bulb Temperature Range {deltaC}
  23.9,                                   ! Humidity Indicating Conditions at Maximum Dry-Bulb {BasedOnField A3}
  99264,                                  ! Barometric Pressure {Pa}
  4.6,                                    ! Wind Speed {m/s}
  240,                                    ! Wind Direction {deg}
  0,                                      ! Sky Clearness
  0,                                      ! Rain Indicator
  0,                                      ! Snow Indicator
  21,                                     ! Day of Month
  7,                                      ! Month
  SummerDesignDay,                        ! Day Type
  0,                                      ! Daylight Saving Time Indicator
  Dewpoint,                               ! Humidity Indicating Type
  ,                                       ! Humidity Indicating Day Schedule Name
  DefaultMultipliers,                     ! Dry-Bulb Temperature Range Modifier Type
  ,                                       ! Dry-Bulb Temperature Range Modifier Schedule Name
  ASHRAETau,                              ! Solar Model Indicator
  ,                                       ! Beam Solar Day Schedule Name
  ,                                       ! Diffuse Solar Day Schedule Name
  0.47,                                   ! ASHRAE Taub {dimensionless}
  2.004;                                  ! ASHRAE Taud {dimensionless}

OS:ComponentData,
  {43c7f4c9-b652-4884-979b-65717c0ca0f9}, ! Handle
  Component Data 1,                       ! Name
  {9b136117-fa09-4b1d-8cbe-95e1c75c5677}, ! UUID
  {18ce451c-04bd-4d87-bcbd-b28323c03728}, ! Version UUID
  1366308585,                             ! Creation Timestamp
  1366308585,                             ! Version Timestamp
  {0f45f98c-00b6-4999-85e0-08c5e22c829b}; ! Name of Object 1

