
OS:Version,
  {68baa615-6a6f-4977-bc79-2947329450dc}, ! Handle
  0.9.3;                                  ! Version Identifier

OS:SizingPeriod:DesignDay,
  {86a0366f-2d82-486d-befb-d4fe61aa0172}, ! Handle
  TALKEETNA Ann Clg 2% Condns DB=>MWB,    ! Name
  21.3,                                   ! Maximum Dry-Bulb Temperature {C}
  8.8,                                    ! Daily Dry-Bulb Temperature Range {deltaC}
  13.9,                                   ! Humidity Indicating Conditions at Maximum Dry-Bulb {BasedOnField A3}
  100070,                                 ! Barometric Pressure {Pa}
  2.9,                                    ! Wind Speed {m/s}
  180,                                    ! Wind Direction {deg}
  0,                                      ! Sky Clearness
  0,                                      ! Rain Indicator
  0,                                      ! Snow Indicator
  21,                                     ! Day of Month
  7,                                      ! Month
  SummerDesignDay,                        ! Day Type
  0,                                      ! Daylight Saving Time Indicator
  Wetbulb,                                ! Humidity Indicating Type
  ,                                       ! Humidity Indicating Day Schedule Name
  DefaultMultipliers,                     ! Dry-Bulb Temperature Range Modifier Type
  ,                                       ! Dry-Bulb Temperature Range Modifier Schedule Name
  ASHRAETau,                              ! Solar Model Indicator
  ,                                       ! Beam Solar Day Schedule Name
  ,                                       ! Diffuse Solar Day Schedule Name
  0.379,                                  ! ASHRAE Taub {dimensionless}
  2.177;                                  ! ASHRAE Taud {dimensionless}

OS:ComponentData,
  {98665eee-6988-4603-a39c-bc43f175558e}, ! Handle
  Component Data 1,                       ! Name
  {311f7d9c-a3ee-4ab3-ae26-2aeeb4458598}, ! UUID
  {22498fcb-b839-4481-b406-a953f60937be}, ! Version UUID
  1366305582,                             ! Creation Timestamp
  1366305582,                             ! Version Timestamp
  {86a0366f-2d82-486d-befb-d4fe61aa0172}; ! Name of Object 1

