
OS:Version,
  {fdfa9127-d36d-42a5-ad6e-a1fb5a36a084}, ! Handle
  0.9.3;                                  ! Version Identifier

OS:SizingPeriod:DesignDay,
  {c3936840-8c8a-4967-86dc-4229a0754135}, ! Handle
  Virginia Tech Arpt Ann Clg .4% Condns WB=>MDB, ! Name
  28.9,                                   ! Maximum Dry-Bulb Temperature {C}
  10.7,                                   ! Daily Dry-Bulb Temperature Range {deltaC}
  23.5,                                   ! Humidity Indicating Conditions at Maximum Dry-Bulb {BasedOnField A3}
  93756,                                  ! Barometric Pressure {Pa}
  2.9,                                    ! Wind Speed {m/s}
  300,                                    ! Wind Direction {deg}
  0,                                      ! Sky Clearness
  0,                                      ! Rain Indicator
  0,                                      ! Snow Indicator
  21,                                     ! Day of Month
  7,                                      ! Month
  SummerDesignDay,                        ! Day Type
  0,                                      ! Daylight Saving Time Indicator
  Wetbulb,                                ! Humidity Indicating Type
  ,                                       ! Humidity Indicating Day Schedule Name
  DefaultMultipliers,                     ! Dry-Bulb Temperature Range Modifier Type
  ,                                       ! Dry-Bulb Temperature Range Modifier Schedule Name
  ASHRAETau,                              ! Solar Model Indicator
  ,                                       ! Beam Solar Day Schedule Name
  ,                                       ! Diffuse Solar Day Schedule Name
  0.505,                                  ! ASHRAE Taub {dimensionless}
  1.859;                                  ! ASHRAE Taud {dimensionless}

OS:ComponentData,
  {fd0f227f-b7c9-4913-99f1-82b500acd2b8}, ! Handle
  Component Data 1,                       ! Name
  {80e8981c-5bda-45da-a354-bbbaa90a8611}, ! UUID
  {474b5460-f8fe-4ed8-abf7-abb96b307a57}, ! Version UUID
  1366311023,                             ! Creation Timestamp
  1366311023,                             ! Version Timestamp
  {c3936840-8c8a-4967-86dc-4229a0754135}; ! Name of Object 1

