
OS:Version,
  {a83dec27-b75f-4d9b-8cbb-c7f769160765}, ! Handle
  0.9.3;                                  ! Version Identifier

OS:SizingPeriod:DesignDay,
  {90540145-04a0-4ae7-a9eb-d03565b93403}, ! Handle
  New Bern Craven Co Regl Ap Ann Htg Wind 99.6% Condns WS=>MCDB, ! Name
  10,                                     ! Maximum Dry-Bulb Temperature {C}
  0,                                      ! Daily Dry-Bulb Temperature Range {deltaC}
  10,                                     ! Humidity Indicating Conditions at Maximum Dry-Bulb {BasedOnField A3}
  101265,                                 ! Barometric Pressure {Pa}
  9.8,                                    ! Wind Speed {m/s}
  10,                                     ! Wind Direction {deg}
  0,                                      ! Sky Clearness
  0,                                      ! Rain Indicator
  0,                                      ! Snow Indicator
  21,                                     ! Day of Month
  1,                                      ! Month
  WinterDesignDay,                        ! Day Type
  0,                                      ! Daylight Saving Time Indicator
  Wetbulb,                                ! Humidity Indicating Type
  ,                                       ! Humidity Indicating Day Schedule Name
  DefaultMultipliers,                     ! Dry-Bulb Temperature Range Modifier Type
  ,                                       ! Dry-Bulb Temperature Range Modifier Schedule Name
  ASHRAEClearSky;                         ! Solar Model Indicator

OS:ComponentData,
  {46c7e309-15a0-465c-b749-ce91f41d5c63}, ! Handle
  Component Data 1,                       ! Name
  {f2a59d9b-869b-4888-8cec-763afb5c6677}, ! UUID
  {563617d2-af15-452b-b8af-7f82774d7cd0}, ! Version UUID
  1366308951,                             ! Creation Timestamp
  1366308951,                             ! Version Timestamp
  {90540145-04a0-4ae7-a9eb-d03565b93403}; ! Name of Object 1

