
OS:Version,
  {ded709db-54c6-4652-9298-06d73accdd50}, ! Handle
  0.9.3;                                  ! Version Identifier

OS:SizingPeriod:DesignDay,
  {d4c44db1-7511-4ef4-901f-a3834829662a}, ! Handle
  Manitowac Muni Awos Ann Htg Wind 99% Condns WS=>MCDB, ! Name
  -4.4,                                   ! Maximum Dry-Bulb Temperature {C}
  0,                                      ! Daily Dry-Bulb Temperature Range {deltaC}
  -4.4,                                   ! Humidity Indicating Conditions at Maximum Dry-Bulb {BasedOnField A3}
  98969,                                  ! Barometric Pressure {Pa}
  10.9,                                   ! Wind Speed {m/s}
  280,                                    ! Wind Direction {deg}
  0,                                      ! Sky Clearness
  0,                                      ! Rain Indicator
  0,                                      ! Snow Indicator
  21,                                     ! Day of Month
  1,                                      ! Month
  WinterDesignDay,                        ! Day Type
  0,                                      ! Daylight Saving Time Indicator
  Wetbulb,                                ! Humidity Indicating Type
  ,                                       ! Humidity Indicating Day Schedule Name
  DefaultMultipliers,                     ! Dry-Bulb Temperature Range Modifier Type
  ,                                       ! Dry-Bulb Temperature Range Modifier Schedule Name
  ASHRAEClearSky;                         ! Solar Model Indicator

OS:ComponentData,
  {d1f4d981-e9d8-4e20-9f0c-611cd14dd14a}, ! Handle
  Component Data 1,                       ! Name
  {2016c827-f0fd-4e07-bbf5-e227adb54ab2}, ! UUID
  {97363b7a-07d0-491e-99ed-ce33da720d8d}, ! Version UUID
  1366311536,                             ! Creation Timestamp
  1366311536,                             ! Version Timestamp
  {d4c44db1-7511-4ef4-901f-a3834829662a}; ! Name of Object 1

