
OS:Version,
  {7a1e41d3-abaf-4a22-a645-67cbaca88bc0}, ! Handle
  0.9.3;                                  ! Version Identifier

OS:SizingPeriod:DesignDay,
  {c8e4ed50-60a1-4657-94a3-edb929355a96}, ! Handle
  Santa Rosa  Awos Ann Htg 99.6% Condns DB, ! Name
  -1.3,                                   ! Maximum Dry-Bulb Temperature {C}
  0,                                      ! Daily Dry-Bulb Temperature Range {deltaC}
  -1.3,                                   ! Humidity Indicating Conditions at Maximum Dry-Bulb {BasedOnField A3}
  100869,                                 ! Barometric Pressure {Pa}
  0.8,                                    ! Wind Speed {m/s}
  300,                                    ! Wind Direction {deg}
  0,                                      ! Sky Clearness
  0,                                      ! Rain Indicator
  0,                                      ! Snow Indicator
  21,                                     ! Day of Month
  1,                                      ! Month
  WinterDesignDay,                        ! Day Type
  0,                                      ! Daylight Saving Time Indicator
  Wetbulb,                                ! Humidity Indicating Type
  ,                                       ! Humidity Indicating Day Schedule Name
  DefaultMultipliers,                     ! Dry-Bulb Temperature Range Modifier Type
  ,                                       ! Dry-Bulb Temperature Range Modifier Schedule Name
  ASHRAEClearSky;                         ! Solar Model Indicator

OS:ComponentData,
  {88d6470e-e73f-4345-b57b-5b54a10fd26b}, ! Handle
  Component Data 1,                       ! Name
  {85884edf-5578-4b53-8ea1-806ddd99b467}, ! UUID
  {db185269-fd6c-4034-8f60-173e77579993}, ! Version UUID
  1366306618,                             ! Creation Timestamp
  1366306618,                             ! Version Timestamp
  {c8e4ed50-60a1-4657-94a3-edb929355a96}; ! Name of Object 1

