
OS:Version,
  {fc2cdf02-0667-4eaa-bfbf-c43e6d3ac96a}, ! Handle
  0.9.3;                                  ! Version Identifier

OS:SizingPeriod:DesignDay,
  {cad14bd1-eb6f-4165-97f6-c911b0eccecb}, ! Handle
  St Paul Downtown Ap Ann Clg .4% Condns WB=>MDB, ! Name
  30.3,                                   ! Maximum Dry-Bulb Temperature {C}
  10.3,                                   ! Daily Dry-Bulb Temperature Range {deltaC}
  25.1,                                   ! Humidity Indicating Conditions at Maximum Dry-Bulb {BasedOnField A3}
  98710,                                  ! Barometric Pressure {Pa}
  5.1,                                    ! Wind Speed {m/s}
  180,                                    ! Wind Direction {deg}
  0,                                      ! Sky Clearness
  0,                                      ! Rain Indicator
  0,                                      ! Snow Indicator
  21,                                     ! Day of Month
  7,                                      ! Month
  SummerDesignDay,                        ! Day Type
  0,                                      ! Daylight Saving Time Indicator
  Wetbulb,                                ! Humidity Indicating Type
  ,                                       ! Humidity Indicating Day Schedule Name
  DefaultMultipliers,                     ! Dry-Bulb Temperature Range Modifier Type
  ,                                       ! Dry-Bulb Temperature Range Modifier Schedule Name
  ASHRAETau,                              ! Solar Model Indicator
  ,                                       ! Beam Solar Day Schedule Name
  ,                                       ! Diffuse Solar Day Schedule Name
  0.417,                                  ! ASHRAE Taub {dimensionless}
  2.181;                                  ! ASHRAE Taud {dimensionless}

OS:ComponentData,
  {e2452829-fd7b-474b-898e-378a10ca5443}, ! Handle
  Component Data 1,                       ! Name
  {bbd37cc0-cc9f-41ca-8d22-f1e0fa022a0c}, ! UUID
  {95eb5d30-cc2a-4bb4-8551-0c3cbe5d2716}, ! Version UUID
  1366308435,                             ! Creation Timestamp
  1366308435,                             ! Version Timestamp
  {cad14bd1-eb6f-4165-97f6-c911b0eccecb}; ! Name of Object 1

