
OS:Version,
  {8f5a5e94-4147-48f0-8fa3-f66dcc2c89ac}, ! Handle
  0.9.3;                                  ! Version Identifier

OS:SizingPeriod:DesignDay,
  {d32fc01a-b4d3-4572-ae4b-3128b72ddace}, ! Handle
  Sterling Rockfalls Ann Clg 1% Condns WB=>MDB, ! Name
  29.1,                                   ! Maximum Dry-Bulb Temperature {C}
  11.1,                                   ! Daily Dry-Bulb Temperature Range {deltaC}
  24.2,                                   ! Humidity Indicating Conditions at Maximum Dry-Bulb {BasedOnField A3}
  98981,                                  ! Barometric Pressure {Pa}
  3.6,                                    ! Wind Speed {m/s}
  220,                                    ! Wind Direction {deg}
  0,                                      ! Sky Clearness
  0,                                      ! Rain Indicator
  0,                                      ! Snow Indicator
  21,                                     ! Day of Month
  7,                                      ! Month
  SummerDesignDay,                        ! Day Type
  0,                                      ! Daylight Saving Time Indicator
  Wetbulb,                                ! Humidity Indicating Type
  ,                                       ! Humidity Indicating Day Schedule Name
  DefaultMultipliers,                     ! Dry-Bulb Temperature Range Modifier Type
  ,                                       ! Dry-Bulb Temperature Range Modifier Schedule Name
  ASHRAETau,                              ! Solar Model Indicator
  ,                                       ! Beam Solar Day Schedule Name
  ,                                       ! Diffuse Solar Day Schedule Name
  0.443,                                  ! ASHRAE Taub {dimensionless}
  2.098;                                  ! ASHRAE Taud {dimensionless}

OS:ComponentData,
  {c355bd33-f7bd-413a-b5e9-9246d5211c42}, ! Handle
  Component Data 1,                       ! Name
  {845f00c5-a1eb-4b8a-981d-d0f67f38d3de}, ! UUID
  {838855e2-12a7-41a9-9358-e297acf00793}, ! Version UUID
  1366307413,                             ! Creation Timestamp
  1366307413,                             ! Version Timestamp
  {d32fc01a-b4d3-4572-ae4b-3128b72ddace}; ! Name of Object 1

