
OS:Version,
  {7d06a5d8-afb3-4f46-b238-3ce3c35136b0}, ! Handle
  0.9.3;                                  ! Version Identifier

OS:SizingPeriod:DesignDay,
  {653488cc-f085-4e20-8961-d7be0c54cf13}, ! Handle
  Yakima Air Terminal Ann Clg 1% Condns WB=>MDB, ! Name
  31.4,                                   ! Maximum Dry-Bulb Temperature {C}
  17.9,                                   ! Daily Dry-Bulb Temperature Range {deltaC}
  19.2,                                   ! Humidity Indicating Conditions at Maximum Dry-Bulb {BasedOnField A3}
  97493,                                  ! Barometric Pressure {Pa}
  2.7,                                    ! Wind Speed {m/s}
  100,                                    ! Wind Direction {deg}
  0,                                      ! Sky Clearness
  0,                                      ! Rain Indicator
  0,                                      ! Snow Indicator
  21,                                     ! Day of Month
  7,                                      ! Month
  SummerDesignDay,                        ! Day Type
  0,                                      ! Daylight Saving Time Indicator
  Wetbulb,                                ! Humidity Indicating Type
  ,                                       ! Humidity Indicating Day Schedule Name
  DefaultMultipliers,                     ! Dry-Bulb Temperature Range Modifier Type
  ,                                       ! Dry-Bulb Temperature Range Modifier Schedule Name
  ASHRAETau,                              ! Solar Model Indicator
  ,                                       ! Beam Solar Day Schedule Name
  ,                                       ! Diffuse Solar Day Schedule Name
  0.395,                                  ! ASHRAE Taub {dimensionless}
  2.249;                                  ! ASHRAE Taud {dimensionless}

