
OS:Version,
  {57031ec0-a18f-4769-bf88-775bd68e9426}, ! Handle
  0.9.3;                                  ! Version Identifier

OS:SizingPeriod:DesignDay,
  {2cafb981-173a-4b29-b027-f0df71b7e727}, ! Handle
  Rutland State Ann Htg Wind 99.6% Condns WS=>MCDB, ! Name
  0.9,                                    ! Maximum Dry-Bulb Temperature {C}
  0,                                      ! Daily Dry-Bulb Temperature Range {deltaC}
  0.9,                                    ! Humidity Indicating Conditions at Maximum Dry-Bulb {BasedOnField A3}
  98404,                                  ! Barometric Pressure {Pa}
  12.4,                                   ! Wind Speed {m/s}
  120,                                    ! Wind Direction {deg}
  0,                                      ! Sky Clearness
  0,                                      ! Rain Indicator
  0,                                      ! Snow Indicator
  21,                                     ! Day of Month
  1,                                      ! Month
  WinterDesignDay,                        ! Day Type
  0,                                      ! Daylight Saving Time Indicator
  Wetbulb,                                ! Humidity Indicating Type
  ,                                       ! Humidity Indicating Day Schedule Name
  DefaultMultipliers,                     ! Dry-Bulb Temperature Range Modifier Type
  ,                                       ! Dry-Bulb Temperature Range Modifier Schedule Name
  ASHRAEClearSky;                         ! Solar Model Indicator

OS:ComponentData,
  {5da756d6-43df-4c5a-acd4-4eeba81d1f87}, ! Handle
  Component Data 1,                       ! Name
  {7ca6ee92-d8f8-48be-b58f-509e97671efb}, ! UUID
  {776e554e-ee64-4c4c-9514-912ee622b741}, ! Version UUID
  1366311255,                             ! Creation Timestamp
  1366311255,                             ! Version Timestamp
  {2cafb981-173a-4b29-b027-f0df71b7e727}; ! Name of Object 1

