
OS:Version,
  {0113ebf0-320c-45d4-9d46-f6894a1064fe}, ! Handle
  0.9.3;                                  ! Version Identifier

OS:SizingPeriod:DesignDay,
  {8b08073e-2c4d-4e96-9105-e8e6398f2189}, ! Handle
  Oxnard/Point Mugu NF Ann Hum_n 99% Condns DP=>MCDB, ! Name
  16.5,                                   ! Maximum Dry-Bulb Temperature {C}
  0,                                      ! Daily Dry-Bulb Temperature Range {deltaC}
  -8.8,                                   ! Humidity Indicating Conditions at Maximum Dry-Bulb {BasedOnField A3}
  101289,                                 ! Barometric Pressure {Pa}
  2.1,                                    ! Wind Speed {m/s}
  20,                                     ! Wind Direction {deg}
  0,                                      ! Sky Clearness
  0,                                      ! Rain Indicator
  0,                                      ! Snow Indicator
  21,                                     ! Day of Month
  12,                                     ! Month
  WinterDesignDay,                        ! Day Type
  0,                                      ! Daylight Saving Time Indicator
  Dewpoint,                               ! Humidity Indicating Type
  ,                                       ! Humidity Indicating Day Schedule Name
  DefaultMultipliers,                     ! Dry-Bulb Temperature Range Modifier Type
  ,                                       ! Dry-Bulb Temperature Range Modifier Schedule Name
  ASHRAEClearSky;                         ! Solar Model Indicator

OS:ComponentData,
  {2df817e2-57b5-4ce3-9f69-e602db018dbb}, ! Handle
  Component Data 1,                       ! Name
  {b1a081e6-e0ad-4e34-b879-dd68bd874751}, ! UUID
  {9fd72bce-bef8-429a-a44e-ce2043ec6318}, ! Version UUID
  1366306536,                             ! Creation Timestamp
  1366306536,                             ! Version Timestamp
  {8b08073e-2c4d-4e96-9105-e8e6398f2189}; ! Name of Object 1

