
OS:Version,
  {1b0246c4-568a-434d-8a22-209ad63b0208}, ! Handle
  0.9.3;                                  ! Version Identifier

OS:SizingPeriod:DesignDay,
  {a765cca9-13cc-4471-99d5-98575a4a415b}, ! Handle
  Mobile Regional Ap Ann Hum_n 99% Condns DP=>MCDB, ! Name
  3.7,                                    ! Maximum Dry-Bulb Temperature {C}
  0,                                      ! Daily Dry-Bulb Temperature Range {deltaC}
  -8.5,                                   ! Humidity Indicating Conditions at Maximum Dry-Bulb {BasedOnField A3}
  100535,                                 ! Barometric Pressure {Pa}
  3.7,                                    ! Wind Speed {m/s}
  10,                                     ! Wind Direction {deg}
  0,                                      ! Sky Clearness
  0,                                      ! Rain Indicator
  0,                                      ! Snow Indicator
  21,                                     ! Day of Month
  1,                                      ! Month
  WinterDesignDay,                        ! Day Type
  0,                                      ! Daylight Saving Time Indicator
  Dewpoint,                               ! Humidity Indicating Type
  ,                                       ! Humidity Indicating Day Schedule Name
  DefaultMultipliers,                     ! Dry-Bulb Temperature Range Modifier Type
  ,                                       ! Dry-Bulb Temperature Range Modifier Schedule Name
  ASHRAEClearSky;                         ! Solar Model Indicator

OS:ComponentData,
  {22031653-57b8-4634-be12-d52293e8c1df}, ! Handle
  Component Data 1,                       ! Name
  {cda047b1-e39e-417a-816a-98247c181ad8}, ! UUID
  {a59d7003-5371-4e33-8160-b199e79fa391}, ! Version UUID
  1366305787,                             ! Creation Timestamp
  1366305787,                             ! Version Timestamp
  {a765cca9-13cc-4471-99d5-98575a4a415b}; ! Name of Object 1

