
OS:Version,
  {e79cbc02-45e4-45e2-8efe-42518689e606}, ! Handle
  0.9.3;                                  ! Version Identifier

OS:SizingPeriod:DesignDay,
  {698615b7-2ff5-4bc8-a4b7-aeb7bd977218}, ! Handle
  STERLING Ann Clg 2% Condns Enth=>MDB,   ! Name
  29.2,                                   ! Maximum Dry-Bulb Temperature {C}
  11.4,                                   ! Daily Dry-Bulb Temperature Range {deltaC}
  72500,                                  ! Humidity Indicating Conditions at Maximum Dry-Bulb {BasedOnField A3}
  100344,                                 ! Barometric Pressure {Pa}
  4,                                      ! Wind Speed {m/s}
  290,                                    ! Wind Direction {deg}
  0,                                      ! Sky Clearness
  0,                                      ! Rain Indicator
  0,                                      ! Snow Indicator
  21,                                     ! Day of Month
  7,                                      ! Month
  SummerDesignDay,                        ! Day Type
  0,                                      ! Daylight Saving Time Indicator
  Enthalpy,                               ! Humidity Indicating Type
  ,                                       ! Humidity Indicating Day Schedule Name
  DefaultMultipliers,                     ! Dry-Bulb Temperature Range Modifier Type
  ,                                       ! Dry-Bulb Temperature Range Modifier Schedule Name
  ASHRAETau,                              ! Solar Model Indicator
  ,                                       ! Beam Solar Day Schedule Name
  ,                                       ! Diffuse Solar Day Schedule Name
  0.544,                                  ! ASHRAE Taub {dimensionless}
  1.787;                                  ! ASHRAE Taud {dimensionless}

OS:ComponentData,
  {2db9ad4f-9076-467c-80ed-83282a719658}, ! Handle
  Component Data 1,                       ! Name
  {74926f96-dc72-4e8d-aecf-86c96f2c7c56}, ! UUID
  {4fc358cd-ecd6-4094-a59d-8af24272543b}, ! Version UUID
  1366311204,                             ! Creation Timestamp
  1366311204,                             ! Version Timestamp
  {698615b7-2ff5-4bc8-a4b7-aeb7bd977218}; ! Name of Object 1

