
OS:Version,
  {8e1feb39-c0e5-4223-8dde-2872cffd2e71}, ! Handle
  0.9.3;                                  ! Version Identifier

OS:SizingPeriod:DesignDay,
  {b21088b4-f4d1-450c-811c-5c106794af15}, ! Handle
  Missoula Ann Hum_n 99.6% Condns DP=>MCDB, ! Name
  -19.9,                                  ! Maximum Dry-Bulb Temperature {C}
  0,                                      ! Daily Dry-Bulb Temperature Range {deltaC}
  -26,                                    ! Humidity Indicating Conditions at Maximum Dry-Bulb {BasedOnField A3}
  90180,                                  ! Barometric Pressure {Pa}
  1.6,                                    ! Wind Speed {m/s}
  90,                                     ! Wind Direction {deg}
  0,                                      ! Sky Clearness
  0,                                      ! Rain Indicator
  0,                                      ! Snow Indicator
  21,                                     ! Day of Month
  12,                                     ! Month
  WinterDesignDay,                        ! Day Type
  0,                                      ! Daylight Saving Time Indicator
  Dewpoint,                               ! Humidity Indicating Type
  ,                                       ! Humidity Indicating Day Schedule Name
  DefaultMultipliers,                     ! Dry-Bulb Temperature Range Modifier Type
  ,                                       ! Dry-Bulb Temperature Range Modifier Schedule Name
  ASHRAEClearSky;                         ! Solar Model Indicator

OS:ComponentData,
  {ef0a8734-68ab-40a6-9324-145fd8f6f020}, ! Handle
  Component Data 1,                       ! Name
  {a3f88ccc-617d-4e2c-8b0c-7030ced28312}, ! UUID
  {ca3aebd1-f2c0-451a-8fa2-a2f096589253}, ! Version UUID
  1366308845,                             ! Creation Timestamp
  1366308845,                             ! Version Timestamp
  {b21088b4-f4d1-450c-811c-5c106794af15}; ! Name of Object 1

