
OS:Version,
  {b0012089-9463-4174-a020-e995e6021927}, ! Handle
  0.9.3;                                  ! Version Identifier

OS:SizingPeriod:DesignDay,
  {8bba3e0f-9185-4ec6-b0b3-bbab13ff4f6d}, ! Handle
  Victoria Regional Ap Ann Clg .4% Condns WB=>MDB, ! Name
  31.1,                                   ! Maximum Dry-Bulb Temperature {C}
  10.6,                                   ! Daily Dry-Bulb Temperature Range {deltaC}
  26.8,                                   ! Humidity Indicating Conditions at Maximum Dry-Bulb {BasedOnField A3}
  100905,                                 ! Barometric Pressure {Pa}
  4.9,                                    ! Wind Speed {m/s}
  170,                                    ! Wind Direction {deg}
  0,                                      ! Sky Clearness
  0,                                      ! Rain Indicator
  0,                                      ! Snow Indicator
  21,                                     ! Day of Month
  8,                                      ! Month
  SummerDesignDay,                        ! Day Type
  0,                                      ! Daylight Saving Time Indicator
  Wetbulb,                                ! Humidity Indicating Type
  ,                                       ! Humidity Indicating Day Schedule Name
  DefaultMultipliers,                     ! Dry-Bulb Temperature Range Modifier Type
  ,                                       ! Dry-Bulb Temperature Range Modifier Schedule Name
  ASHRAETau,                              ! Solar Model Indicator
  ,                                       ! Beam Solar Day Schedule Name
  ,                                       ! Diffuse Solar Day Schedule Name
  0.474,                                  ! ASHRAE Taub {dimensionless}
  2.062;                                  ! ASHRAE Taud {dimensionless}

OS:ComponentData,
  {d527effd-7e58-4719-98ba-113503e27ec1}, ! Handle
  Component Data 1,                       ! Name
  {2e0a7c90-ad47-4b08-991e-1508f07eca08}, ! UUID
  {a2413f48-0ebe-4ed9-a5ea-29ebb791cb9c}, ! Version UUID
  1366310912,                             ! Creation Timestamp
  1366310912,                             ! Version Timestamp
  {8bba3e0f-9185-4ec6-b0b3-bbab13ff4f6d}; ! Name of Object 1

