
OS:Version,
  {d5749c6f-7b62-4147-9d9c-1963ffeeb611}, ! Handle
  0.9.3;                                  ! Version Identifier

OS:SizingPeriod:DesignDay,
  {70ef87e9-5582-418e-8c0b-d607dc52d767}, ! Handle
  Roswell Ann Clg 2% Condns DB=>MWB,      ! Name
  35.1,                                   ! Maximum Dry-Bulb Temperature {C}
  14.1,                                   ! Daily Dry-Bulb Temperature Range {deltaC}
  18.3,                                   ! Humidity Indicating Conditions at Maximum Dry-Bulb {BasedOnField A3}
  88660,                                  ! Barometric Pressure {Pa}
  5.3,                                    ! Wind Speed {m/s}
  140,                                    ! Wind Direction {deg}
  0,                                      ! Sky Clearness
  0,                                      ! Rain Indicator
  0,                                      ! Snow Indicator
  21,                                     ! Day of Month
  7,                                      ! Month
  SummerDesignDay,                        ! Day Type
  0,                                      ! Daylight Saving Time Indicator
  Wetbulb,                                ! Humidity Indicating Type
  ,                                       ! Humidity Indicating Day Schedule Name
  DefaultMultipliers,                     ! Dry-Bulb Temperature Range Modifier Type
  ,                                       ! Dry-Bulb Temperature Range Modifier Schedule Name
  ASHRAETau,                              ! Solar Model Indicator
  ,                                       ! Beam Solar Day Schedule Name
  ,                                       ! Diffuse Solar Day Schedule Name
  0.461,                                  ! ASHRAE Taub {dimensionless}
  1.916;                                  ! ASHRAE Taud {dimensionless}

OS:ComponentData,
  {41ecdb7e-fad4-4a15-8156-fe7675c02060}, ! Handle
  Component Data 1,                       ! Name
  {35cb4878-279b-4922-b39c-b1fadb54338d}, ! UUID
  {3c63ffcd-6638-41a2-834e-56ef1702cf8b}, ! Version UUID
  1366309423,                             ! Creation Timestamp
  1366309423,                             ! Version Timestamp
  {70ef87e9-5582-418e-8c0b-d607dc52d767}; ! Name of Object 1

