
OS:Version,
  {5f949f1d-9522-4d4e-855e-e20b3dafc4bb}, ! Handle
  0.9.3;                                  ! Version Identifier

OS:SizingPeriod:DesignDay,
  {b1975324-28c2-4669-a223-33122f393172}, ! Handle
  Norfolk Nas Ann Clg .4% Condns DP=>MDB, ! Name
  28.9,                                   ! Maximum Dry-Bulb Temperature {C}
  7.9,                                    ! Daily Dry-Bulb Temperature Range {deltaC}
  25.2,                                   ! Humidity Indicating Conditions at Maximum Dry-Bulb {BasedOnField A3}
  101205,                                 ! Barometric Pressure {Pa}
  4.3,                                    ! Wind Speed {m/s}
  210,                                    ! Wind Direction {deg}
  0,                                      ! Sky Clearness
  0,                                      ! Rain Indicator
  0,                                      ! Snow Indicator
  21,                                     ! Day of Month
  7,                                      ! Month
  SummerDesignDay,                        ! Day Type
  0,                                      ! Daylight Saving Time Indicator
  Dewpoint,                               ! Humidity Indicating Type
  ,                                       ! Humidity Indicating Day Schedule Name
  DefaultMultipliers,                     ! Dry-Bulb Temperature Range Modifier Type
  ,                                       ! Dry-Bulb Temperature Range Modifier Schedule Name
  ASHRAETau,                              ! Solar Model Indicator
  ,                                       ! Beam Solar Day Schedule Name
  ,                                       ! Diffuse Solar Day Schedule Name
  0.593,                                  ! ASHRAE Taub {dimensionless}
  1.694;                                  ! ASHRAE Taud {dimensionless}

OS:ComponentData,
  {304ad08b-9e7a-426f-a42d-f6a368bbc4e0}, ! Handle
  Component Data 1,                       ! Name
  {a5a2e8e5-1ca0-48eb-9aee-4ebc03aabcbd}, ! UUID
  {d8f899cf-278a-4c71-9d8e-d564ebff4229}, ! Version UUID
  1366311140,                             ! Creation Timestamp
  1366311140,                             ! Version Timestamp
  {b1975324-28c2-4669-a223-33122f393172}; ! Name of Object 1

