
OS:Version,
  {1f302bcb-3a2f-4fad-93ff-04bff1ee78fc}, ! Handle
  0.9.3;                                  ! Version Identifier

OS:SizingPeriod:DesignDay,
  {a195ef70-79dc-4589-8c37-6b7c61872985}, ! Handle
  Sandberg Ann Clg 2% Condns WB=>MDB,     ! Name
  27.2,                                   ! Maximum Dry-Bulb Temperature {C}
  11.4,                                   ! Daily Dry-Bulb Temperature Range {deltaC}
  16.5,                                   ! Humidity Indicating Conditions at Maximum Dry-Bulb {BasedOnField A3}
  85840,                                  ! Barometric Pressure {Pa}
  5.1,                                    ! Wind Speed {m/s}
  170,                                    ! Wind Direction {deg}
  0,                                      ! Sky Clearness
  0,                                      ! Rain Indicator
  0,                                      ! Snow Indicator
  21,                                     ! Day of Month
  8,                                      ! Month
  SummerDesignDay,                        ! Day Type
  0,                                      ! Daylight Saving Time Indicator
  Wetbulb,                                ! Humidity Indicating Type
  ,                                       ! Humidity Indicating Day Schedule Name
  DefaultMultipliers,                     ! Dry-Bulb Temperature Range Modifier Type
  ,                                       ! Dry-Bulb Temperature Range Modifier Schedule Name
  ASHRAETau,                              ! Solar Model Indicator
  ,                                       ! Beam Solar Day Schedule Name
  ,                                       ! Diffuse Solar Day Schedule Name
  0.351,                                  ! ASHRAE Taub {dimensionless}
  2.367;                                  ! ASHRAE Taud {dimensionless}

