
OS:Version,
  {3d05fbe2-dc42-4adc-b644-5e77a988c634}, ! Handle
  0.9.3;                                  ! Version Identifier

OS:SizingPeriod:DesignDay,
  {173c86bc-c2aa-4a44-a89c-1ccd32dd414b}, ! Handle
  Providence Ann Clg 2% Condns DB=>MWB,   ! Name
  28.8,                                   ! Maximum Dry-Bulb Temperature {C}
  9.6,                                    ! Daily Dry-Bulb Temperature Range {deltaC}
  21.3,                                   ! Humidity Indicating Conditions at Maximum Dry-Bulb {BasedOnField A3}
  101097,                                 ! Barometric Pressure {Pa}
  5.5,                                    ! Wind Speed {m/s}
  280,                                    ! Wind Direction {deg}
  0,                                      ! Sky Clearness
  0,                                      ! Rain Indicator
  0,                                      ! Snow Indicator
  21,                                     ! Day of Month
  7,                                      ! Month
  SummerDesignDay,                        ! Day Type
  0,                                      ! Daylight Saving Time Indicator
  Wetbulb,                                ! Humidity Indicating Type
  ,                                       ! Humidity Indicating Day Schedule Name
  DefaultMultipliers,                     ! Dry-Bulb Temperature Range Modifier Type
  ,                                       ! Dry-Bulb Temperature Range Modifier Schedule Name
  ASHRAETau,                              ! Solar Model Indicator
  ,                                       ! Beam Solar Day Schedule Name
  ,                                       ! Diffuse Solar Day Schedule Name
  0.507,                                  ! ASHRAE Taub {dimensionless}
  1.885;                                  ! ASHRAE Taud {dimensionless}

OS:ComponentData,
  {437bd953-e274-469c-87ad-94215abacf82}, ! Handle
  Component Data 1,                       ! Name
  {b02614e9-1a4a-4287-b7c2-761111319585}, ! UUID
  {f0846107-0bed-46a6-967e-57f379704d7a}, ! Version UUID
  1366310298,                             ! Creation Timestamp
  1366310298,                             ! Version Timestamp
  {173c86bc-c2aa-4a44-a89c-1ccd32dd414b}; ! Name of Object 1

