
OS:Version,
  {a75eef46-7131-47e1-8e92-34ad06c352b0}, ! Handle
  0.9.3;                                  ! Version Identifier

OS:SizingPeriod:DesignDay,
  {0d1c3bda-d56f-4f8e-9119-6415f0d6baec}, ! Handle
  Morris Muni  Awos Ann Clg .4% Condns DB=>MWB, ! Name
  31.5,                                   ! Maximum Dry-Bulb Temperature {C}
  11.1,                                   ! Daily Dry-Bulb Temperature Range {deltaC}
  23.8,                                   ! Humidity Indicating Conditions at Maximum Dry-Bulb {BasedOnField A3}
  97260,                                  ! Barometric Pressure {Pa}
  5.9,                                    ! Wind Speed {m/s}
  160,                                    ! Wind Direction {deg}
  0,                                      ! Sky Clearness
  0,                                      ! Rain Indicator
  0,                                      ! Snow Indicator
  21,                                     ! Day of Month
  7,                                      ! Month
  SummerDesignDay,                        ! Day Type
  0,                                      ! Daylight Saving Time Indicator
  Wetbulb,                                ! Humidity Indicating Type
  ,                                       ! Humidity Indicating Day Schedule Name
  DefaultMultipliers,                     ! Dry-Bulb Temperature Range Modifier Type
  ,                                       ! Dry-Bulb Temperature Range Modifier Schedule Name
  ASHRAETau,                              ! Solar Model Indicator
  ,                                       ! Beam Solar Day Schedule Name
  ,                                       ! Diffuse Solar Day Schedule Name
  0.394,                                  ! ASHRAE Taub {dimensionless}
  2.261;                                  ! ASHRAE Taud {dimensionless}

OS:ComponentData,
  {5142838c-cca5-4375-8d94-d374fcc4454d}, ! Handle
  Component Data 1,                       ! Name
  {02202594-517d-440a-9210-1110e6efe715}, ! UUID
  {12f8c259-4dd1-4aee-99ae-d7a93d026b50}, ! Version UUID
  1366308335,                             ! Creation Timestamp
  1366308335,                             ! Version Timestamp
  {0d1c3bda-d56f-4f8e-9119-6415f0d6baec}; ! Name of Object 1

