
OS:Version,
  {5cb8782a-0b9f-4df7-94b0-5f7b8d281994}, ! Handle
  0.9.3;                                  ! Version Identifier

OS:SizingPeriod:DesignDay,
  {f4826be9-9eeb-407f-8c36-bb39f2832ae3}, ! Handle
  MILWAUKEE Ann Htg 99.6% Condns DB,      ! Name
  -20,                                    ! Maximum Dry-Bulb Temperature {C}
  0,                                      ! Daily Dry-Bulb Temperature Range {deltaC}
  -20,                                    ! Humidity Indicating Conditions at Maximum Dry-Bulb {BasedOnField A3}
  98816,                                  ! Barometric Pressure {Pa}
  5.7,                                    ! Wind Speed {m/s}
  300,                                    ! Wind Direction {deg}
  0,                                      ! Sky Clearness
  0,                                      ! Rain Indicator
  0,                                      ! Snow Indicator
  21,                                     ! Day of Month
  1,                                      ! Month
  WinterDesignDay,                        ! Day Type
  0,                                      ! Daylight Saving Time Indicator
  Wetbulb,                                ! Humidity Indicating Type
  ,                                       ! Humidity Indicating Day Schedule Name
  DefaultMultipliers,                     ! Dry-Bulb Temperature Range Modifier Type
  ,                                       ! Dry-Bulb Temperature Range Modifier Schedule Name
  ASHRAEClearSky;                         ! Solar Model Indicator

OS:ComponentData,
  {6590616f-2c86-428e-a416-ebfcb891ea11}, ! Handle
  Component Data 1,                       ! Name
  {f89a5e7e-4991-4604-b626-6bc325bf9288}, ! UUID
  {04d79770-d970-4bc2-8e02-0c86d8945db2}, ! Version UUID
  1366311561,                             ! Creation Timestamp
  1366311561,                             ! Version Timestamp
  {f4826be9-9eeb-407f-8c36-bb39f2832ae3}; ! Name of Object 1

