
OS:Version,
  {3a978cfc-8d52-4b87-b1b6-217a9aff1812}, ! Handle
  0.9.3;                                  ! Version Identifier

OS:SizingPeriod:DesignDay,
  {ec88252e-79f8-4b3c-8dd1-e59008e61a32}, ! Handle
  Molokai  Amos Ann Clg .4% Condns Enth=>MDB, ! Name
  28.2,                                   ! Maximum Dry-Bulb Temperature {C}
  7,                                      ! Daily Dry-Bulb Temperature Range {deltaC}
  74100,                                  ! Humidity Indicating Conditions at Maximum Dry-Bulb {BasedOnField A3}
  99690,                                  ! Barometric Pressure {Pa}
  6.1,                                    ! Wind Speed {m/s}
  60,                                     ! Wind Direction {deg}
  0,                                      ! Sky Clearness
  0,                                      ! Rain Indicator
  0,                                      ! Snow Indicator
  21,                                     ! Day of Month
  8,                                      ! Month
  SummerDesignDay,                        ! Day Type
  0,                                      ! Daylight Saving Time Indicator
  Enthalpy,                               ! Humidity Indicating Type
  ,                                       ! Humidity Indicating Day Schedule Name
  DefaultMultipliers,                     ! Dry-Bulb Temperature Range Modifier Type
  ,                                       ! Dry-Bulb Temperature Range Modifier Schedule Name
  ASHRAETau,                              ! Solar Model Indicator
  ,                                       ! Beam Solar Day Schedule Name
  ,                                       ! Diffuse Solar Day Schedule Name
  0.373,                                  ! ASHRAE Taub {dimensionless}
  2.559;                                  ! ASHRAE Taud {dimensionless}

