
OS:Version,
  {591afac7-f868-416f-99f4-8e4f30e61144}, ! Handle
  0.9.3;                                  ! Version Identifier

OS:SizingPeriod:DesignDay,
  {b0840bb4-c0f0-42b8-89eb-8ebe77cd910a}, ! Handle
  ST_PAUL Ann Clg 2% Condns WB=>MDB,      ! Name
  10.8,                                   ! Maximum Dry-Bulb Temperature {C}
  3.1,                                    ! Daily Dry-Bulb Temperature Range {deltaC}
  10.2,                                   ! Humidity Indicating Conditions at Maximum Dry-Bulb {BasedOnField A3}
  101241,                                 ! Barometric Pressure {Pa}
  6,                                      ! Wind Speed {m/s}
  350,                                    ! Wind Direction {deg}
  0,                                      ! Sky Clearness
  0,                                      ! Rain Indicator
  0,                                      ! Snow Indicator
  21,                                     ! Day of Month
  8,                                      ! Month
  SummerDesignDay,                        ! Day Type
  0,                                      ! Daylight Saving Time Indicator
  Wetbulb,                                ! Humidity Indicating Type
  ,                                       ! Humidity Indicating Day Schedule Name
  DefaultMultipliers,                     ! Dry-Bulb Temperature Range Modifier Type
  ,                                       ! Dry-Bulb Temperature Range Modifier Schedule Name
  ASHRAETau,                              ! Solar Model Indicator
  ,                                       ! Beam Solar Day Schedule Name
  ,                                       ! Diffuse Solar Day Schedule Name
  0.39,                                   ! ASHRAE Taub {dimensionless}
  2.227;                                  ! ASHRAE Taud {dimensionless}

OS:ComponentData,
  {e108cce6-3907-4341-8e02-5ca0f0ad0e06}, ! Handle
  Component Data 1,                       ! Name
  {99883b54-c2a4-4411-8085-bf5c909e975e}, ! UUID
  {3978ce33-f6a0-4d1b-a262-715b78ef31e7}, ! Version UUID
  1366305573,                             ! Creation Timestamp
  1366305573,                             ! Version Timestamp
  {b0840bb4-c0f0-42b8-89eb-8ebe77cd910a}; ! Name of Object 1

