
OS:Version,
  {2587d744-8b0e-4ebc-b3c4-56e87109489e}, ! Handle
  0.9.3;                                  ! Version Identifier

OS:SizingPeriod:DesignDay,
  {83d0eaf7-496e-406a-88fd-19dc3af2b396}, ! Handle
  WICHITA_FALLS Ann Htg Wind 99.6% Condns WS=>MCDB, ! Name
  6.4,                                    ! Maximum Dry-Bulb Temperature {C}
  0,                                      ! Daily Dry-Bulb Temperature Range {deltaC}
  6.4,                                    ! Humidity Indicating Conditions at Maximum Dry-Bulb {BasedOnField A3}
  97609,                                  ! Barometric Pressure {Pa}
  13.4,                                   ! Wind Speed {m/s}
  0,                                      ! Wind Direction {deg}
  0,                                      ! Sky Clearness
  0,                                      ! Rain Indicator
  0,                                      ! Snow Indicator
  21,                                     ! Day of Month
  1,                                      ! Month
  WinterDesignDay,                        ! Day Type
  0,                                      ! Daylight Saving Time Indicator
  Wetbulb,                                ! Humidity Indicating Type
  ,                                       ! Humidity Indicating Day Schedule Name
  DefaultMultipliers,                     ! Dry-Bulb Temperature Range Modifier Type
  ,                                       ! Dry-Bulb Temperature Range Modifier Schedule Name
  ASHRAEClearSky;                         ! Solar Model Indicator

