
OS:Version,
  {124cb225-1bbf-41f7-b821-acf1871521a1}, ! Handle
  0.9.3;                                  ! Version Identifier

OS:SizingPeriod:DesignDay,
  {5df8c0bd-707e-455c-94d9-4a38718b9108}, ! Handle
  Mount Shasta Ann Clg .4% Condns WB=>MDB, ! Name
  29.6,                                   ! Maximum Dry-Bulb Temperature {C}
  17,                                     ! Daily Dry-Bulb Temperature Range {deltaC}
  18.9,                                   ! Humidity Indicating Conditions at Maximum Dry-Bulb {BasedOnField A3}
  89038,                                  ! Barometric Pressure {Pa}
  1.7,                                    ! Wind Speed {m/s}
  180,                                    ! Wind Direction {deg}
  0,                                      ! Sky Clearness
  0,                                      ! Rain Indicator
  0,                                      ! Snow Indicator
  21,                                     ! Day of Month
  7,                                      ! Month
  SummerDesignDay,                        ! Day Type
  0,                                      ! Daylight Saving Time Indicator
  Wetbulb,                                ! Humidity Indicating Type
  ,                                       ! Humidity Indicating Day Schedule Name
  DefaultMultipliers,                     ! Dry-Bulb Temperature Range Modifier Type
  ,                                       ! Dry-Bulb Temperature Range Modifier Schedule Name
  ASHRAETau,                              ! Solar Model Indicator
  ,                                       ! Beam Solar Day Schedule Name
  ,                                       ! Diffuse Solar Day Schedule Name
  0.334,                                  ! ASHRAE Taub {dimensionless}
  2.582;                                  ! ASHRAE Taud {dimensionless}

OS:ComponentData,
  {607b5eb9-dbef-471b-8fd4-723365b67ec9}, ! Handle
  Component Data 1,                       ! Name
  {36cced1b-fee5-4414-8624-9098738fef63}, ! UUID
  {317ec2bb-123b-4c0b-b296-6996815cb44a}, ! Version UUID
  1366306502,                             ! Creation Timestamp
  1366306502,                             ! Version Timestamp
  {5df8c0bd-707e-455c-94d9-4a38718b9108}; ! Name of Object 1

