
OS:Version,
  {eec04dc0-ecfb-48cb-b0d3-20f9923cbf7f}, ! Handle
  0.9.3;                                  ! Version Identifier

OS:SizingPeriod:DesignDay,
  {d80553ab-7c44-4e08-b983-2e762aa71412}, ! Handle
  Manistee  Awos Ann Clg 2% Condns WB=>MDB, ! Name
  25,                                     ! Maximum Dry-Bulb Temperature {C}
  11,                                     ! Daily Dry-Bulb Temperature Range {deltaC}
  21,                                     ! Humidity Indicating Conditions at Maximum Dry-Bulb {BasedOnField A3}
  99075,                                  ! Barometric Pressure {Pa}
  4.6,                                    ! Wind Speed {m/s}
  200,                                    ! Wind Direction {deg}
  0,                                      ! Sky Clearness
  0,                                      ! Rain Indicator
  0,                                      ! Snow Indicator
  21,                                     ! Day of Month
  7,                                      ! Month
  SummerDesignDay,                        ! Day Type
  0,                                      ! Daylight Saving Time Indicator
  Wetbulb,                                ! Humidity Indicating Type
  ,                                       ! Humidity Indicating Day Schedule Name
  DefaultMultipliers,                     ! Dry-Bulb Temperature Range Modifier Type
  ,                                       ! Dry-Bulb Temperature Range Modifier Schedule Name
  ASHRAETau,                              ! Solar Model Indicator
  ,                                       ! Beam Solar Day Schedule Name
  ,                                       ! Diffuse Solar Day Schedule Name
  0.429,                                  ! ASHRAE Taub {dimensionless}
  2.158;                                  ! ASHRAE Taud {dimensionless}

OS:ComponentData,
  {60cb5d1f-483e-45b4-a3e6-f12389868e9f}, ! Handle
  Component Data 1,                       ! Name
  {5e1f702c-56cc-4fe2-a9e7-09b31db0ddc5}, ! UUID
  {0fe3f53f-93c3-4bb3-beed-392b6bbde287}, ! Version UUID
  1366308061,                             ! Creation Timestamp
  1366308061,                             ! Version Timestamp
  {d80553ab-7c44-4e08-b983-2e762aa71412}; ! Name of Object 1

