
OS:Version,
  {fa2b3575-f1df-4918-a171-fd83fb439f75}, ! Handle
  0.9.3;                                  ! Version Identifier

OS:SizingPeriod:DesignDay,
  {3c337f71-f625-489a-9200-1d88292f293e}, ! Handle
  Mason City Ann Htg Wind 99.6% Condns WS=>MCDB, ! Name
  -9,                                     ! Maximum Dry-Bulb Temperature {C}
  0,                                      ! Daily Dry-Bulb Temperature Range {deltaC}
  -9,                                     ! Humidity Indicating Conditions at Maximum Dry-Bulb {BasedOnField A3}
  96958,                                  ! Barometric Pressure {Pa}
  15.1,                                   ! Wind Speed {m/s}
  300,                                    ! Wind Direction {deg}
  0,                                      ! Sky Clearness
  0,                                      ! Rain Indicator
  0,                                      ! Snow Indicator
  21,                                     ! Day of Month
  1,                                      ! Month
  WinterDesignDay,                        ! Day Type
  0,                                      ! Daylight Saving Time Indicator
  Wetbulb,                                ! Humidity Indicating Type
  ,                                       ! Humidity Indicating Day Schedule Name
  DefaultMultipliers,                     ! Dry-Bulb Temperature Range Modifier Type
  ,                                       ! Dry-Bulb Temperature Range Modifier Schedule Name
  ASHRAEClearSky;                         ! Solar Model Indicator

