
OS:Version,
  {9853f7b5-a361-4ee2-a833-4af5580ceacb}, ! Handle
  0.9.3;                                  ! Version Identifier

OS:SizingPeriod:DesignDay,
  {c81811d5-a907-4778-88ab-708488707659}, ! Handle
  Olathe Johnson Co Ann Hum_n 99.6% Condns DP=>MCDB, ! Name
  -13.2,                                  ! Maximum Dry-Bulb Temperature {C}
  0,                                      ! Daily Dry-Bulb Temperature Range {deltaC}
  -19.8,                                  ! Humidity Indicating Conditions at Maximum Dry-Bulb {BasedOnField A3}
  97376,                                  ! Barometric Pressure {Pa}
  3.7,                                    ! Wind Speed {m/s}
  320,                                    ! Wind Direction {deg}
  0,                                      ! Sky Clearness
  0,                                      ! Rain Indicator
  0,                                      ! Snow Indicator
  21,                                     ! Day of Month
  1,                                      ! Month
  WinterDesignDay,                        ! Day Type
  0,                                      ! Daylight Saving Time Indicator
  Dewpoint,                               ! Humidity Indicating Type
  ,                                       ! Humidity Indicating Day Schedule Name
  DefaultMultipliers,                     ! Dry-Bulb Temperature Range Modifier Type
  ,                                       ! Dry-Bulb Temperature Range Modifier Schedule Name
  ASHRAEClearSky;                         ! Solar Model Indicator

OS:ComponentData,
  {5726aaeb-b035-471e-9779-07667f78e326}, ! Handle
  Component Data 1,                       ! Name
  {68b51654-f847-42ad-aafe-69ed8339b65d}, ! UUID
  {34f61a61-e1f5-4bb6-be31-d7de8b42a00c}, ! Version UUID
  1366307566,                             ! Creation Timestamp
  1366307566,                             ! Version Timestamp
  {c81811d5-a907-4778-88ab-708488707659}; ! Name of Object 1

