
OS:Version,
  {c0c36a5d-c24d-41cb-88be-a3785720223a}, ! Handle
  0.9.3;                                  ! Version Identifier

OS:SizingPeriod:DesignDay,
  {ce96e40b-da8f-496b-85ac-1293ed8a5504}, ! Handle
  Traverse City Cherry Capital Ann Clg 2% Condns WB=>MDB, ! Name
  26.4,                                   ! Maximum Dry-Bulb Temperature {C}
  11.8,                                   ! Daily Dry-Bulb Temperature Range {deltaC}
  21.7,                                   ! Humidity Indicating Conditions at Maximum Dry-Bulb {BasedOnField A3}
  99087,                                  ! Barometric Pressure {Pa}
  5.1,                                    ! Wind Speed {m/s}
  230,                                    ! Wind Direction {deg}
  0,                                      ! Sky Clearness
  0,                                      ! Rain Indicator
  0,                                      ! Snow Indicator
  21,                                     ! Day of Month
  7,                                      ! Month
  SummerDesignDay,                        ! Day Type
  0,                                      ! Daylight Saving Time Indicator
  Wetbulb,                                ! Humidity Indicating Type
  ,                                       ! Humidity Indicating Day Schedule Name
  DefaultMultipliers,                     ! Dry-Bulb Temperature Range Modifier Type
  ,                                       ! Dry-Bulb Temperature Range Modifier Schedule Name
  ASHRAETau,                              ! Solar Model Indicator
  ,                                       ! Beam Solar Day Schedule Name
  ,                                       ! Diffuse Solar Day Schedule Name
  0.422,                                  ! ASHRAE Taub {dimensionless}
  2.177;                                  ! ASHRAE Taud {dimensionless}

OS:ComponentData,
  {3255ec14-a777-48d9-a25b-d10688cf0997}, ! Handle
  Component Data 1,                       ! Name
  {39cfbe0c-834c-4a55-8e00-0b032f08c60b}, ! UUID
  {15a5e4d1-0d34-47bf-b6a5-d77edffbadb4}, ! Version UUID
  1366308125,                             ! Creation Timestamp
  1366308125,                             ! Version Timestamp
  {ce96e40b-da8f-496b-85ac-1293ed8a5504}; ! Name of Object 1

