
OS:Version,
  {7a343e4f-7ead-4ba6-99d2-9d955138452f}, ! Handle
  0.9.3;                                  ! Version Identifier

OS:SizingPeriod:DesignDay,
  {b479b700-f55d-498f-8d27-82a8e1a15e37}, ! Handle
  TULSA Ann Htg Wind 99.6% Condns WS=>MCDB, ! Name
  12.9,                                   ! Maximum Dry-Bulb Temperature {C}
  0,                                      ! Daily Dry-Bulb Temperature Range {deltaC}
  12.9,                                   ! Humidity Indicating Conditions at Maximum Dry-Bulb {BasedOnField A3}
  98875,                                  ! Barometric Pressure {Pa}
  11.7,                                   ! Wind Speed {m/s}
  0,                                      ! Wind Direction {deg}
  0,                                      ! Sky Clearness
  0,                                      ! Rain Indicator
  0,                                      ! Snow Indicator
  21,                                     ! Day of Month
  1,                                      ! Month
  WinterDesignDay,                        ! Day Type
  0,                                      ! Daylight Saving Time Indicator
  Wetbulb,                                ! Humidity Indicating Type
  ,                                       ! Humidity Indicating Day Schedule Name
  DefaultMultipliers,                     ! Dry-Bulb Temperature Range Modifier Type
  ,                                       ! Dry-Bulb Temperature Range Modifier Schedule Name
  ASHRAEClearSky;                         ! Solar Model Indicator

OS:ComponentData,
  {04f0a8dc-6acc-4391-a357-e40e381fb927}, ! Handle
  Component Data 1,                       ! Name
  {62bad463-884e-42b3-acaf-e577b3c6ad8a}, ! UUID
  {747fc650-9f08-491c-b04f-4c509e44ccb6}, ! Version UUID
  1366309948,                             ! Creation Timestamp
  1366309948,                             ! Version Timestamp
  {b479b700-f55d-498f-8d27-82a8e1a15e37}; ! Name of Object 1

