
OS:Version,
  {5dd7d911-5eae-404c-b7e1-0bc69ef0d292}, ! Handle
  0.9.3;                                  ! Version Identifier

OS:SizingPeriod:DesignDay,
  {595a263d-c3a6-44ec-96b5-d55cee910589}, ! Handle
  Moline Quad City Intl Ap Ann Htg Wind 99.6% Condns WS=>MCDB, ! Name
  -7.3,                                   ! Maximum Dry-Bulb Temperature {C}
  0,                                      ! Daily Dry-Bulb Temperature Range {deltaC}
  -7.3,                                   ! Humidity Indicating Conditions at Maximum Dry-Bulb {BasedOnField A3}
  99181,                                  ! Barometric Pressure {Pa}
  13.4,                                   ! Wind Speed {m/s}
  280,                                    ! Wind Direction {deg}
  0,                                      ! Sky Clearness
  0,                                      ! Rain Indicator
  0,                                      ! Snow Indicator
  21,                                     ! Day of Month
  1,                                      ! Month
  WinterDesignDay,                        ! Day Type
  0,                                      ! Daylight Saving Time Indicator
  Wetbulb,                                ! Humidity Indicating Type
  ,                                       ! Humidity Indicating Day Schedule Name
  DefaultMultipliers,                     ! Dry-Bulb Temperature Range Modifier Type
  ,                                       ! Dry-Bulb Temperature Range Modifier Schedule Name
  ASHRAEClearSky;                         ! Solar Model Indicator

OS:ComponentData,
  {f26cc90b-738b-44cf-994e-be1ec1412c49}, ! Handle
  Component Data 1,                       ! Name
  {05499c24-4486-4f5e-ab49-b1b1cb2ae4a7}, ! UUID
  {d218b89a-a11b-42d2-b94b-1ea92b461441}, ! Version UUID
  1366307367,                             ! Creation Timestamp
  1366307367,                             ! Version Timestamp
  {595a263d-c3a6-44ec-96b5-d55cee910589}; ! Name of Object 1

