
OS:Version,
  {ac88920a-1004-486b-b313-c0805c5b535a}, ! Handle
  0.9.3;                                  ! Version Identifier

OS:SizingPeriod:DesignDay,
  {94b8ada9-87cd-4e8a-b968-4aa9bb195219}, ! Handle
  Scottsbluff Ann Clg .4% Condns DB=>MWB, ! Name
  35.8,                                   ! Maximum Dry-Bulb Temperature {C}
  16.6,                                   ! Daily Dry-Bulb Temperature Range {deltaC}
  18.7,                                   ! Humidity Indicating Conditions at Maximum Dry-Bulb {BasedOnField A3}
  87651,                                  ! Barometric Pressure {Pa}
  4.7,                                    ! Wind Speed {m/s}
  300,                                    ! Wind Direction {deg}
  0,                                      ! Sky Clearness
  0,                                      ! Rain Indicator
  0,                                      ! Snow Indicator
  21,                                     ! Day of Month
  7,                                      ! Month
  SummerDesignDay,                        ! Day Type
  0,                                      ! Daylight Saving Time Indicator
  Wetbulb,                                ! Humidity Indicating Type
  ,                                       ! Humidity Indicating Day Schedule Name
  DefaultMultipliers,                     ! Dry-Bulb Temperature Range Modifier Type
  ,                                       ! Dry-Bulb Temperature Range Modifier Schedule Name
  ASHRAETau,                              ! Solar Model Indicator
  ,                                       ! Beam Solar Day Schedule Name
  ,                                       ! Diffuse Solar Day Schedule Name
  0.434,                                  ! ASHRAE Taub {dimensionless}
  1.982;                                  ! ASHRAE Taud {dimensionless}

OS:ComponentData,
  {96e66db7-3e87-4c37-abed-48bdc5da42c5}, ! Handle
  Component Data 1,                       ! Name
  {5930b0dc-ef14-4e9b-96d9-e9265975590a}, ! UUID
  {7e15a612-dc94-42d9-a871-d2a2084f0508}, ! Version UUID
  1366309190,                             ! Creation Timestamp
  1366309190,                             ! Version Timestamp
  {94b8ada9-87cd-4e8a-b968-4aa9bb195219}; ! Name of Object 1

