
OS:Version,
  {fa052b77-12ce-4e9d-b840-62de57295df4}, ! Handle
  0.9.3;                                  ! Version Identifier

OS:SizingPeriod:DesignDay,
  {32082292-cc5d-4806-b4c8-49d9c46f6ea3}, ! Handle
  TUCSON Ann Hum_n 99.6% Condns DP=>MCDB, ! Name
  12.4,                                   ! Maximum Dry-Bulb Temperature {C}
  0,                                      ! Daily Dry-Bulb Temperature Range {deltaC}
  -17,                                    ! Humidity Indicating Conditions at Maximum Dry-Bulb {BasedOnField A3}
  92310,                                  ! Barometric Pressure {Pa}
  2.5,                                    ! Wind Speed {m/s}
  140,                                    ! Wind Direction {deg}
  0,                                      ! Sky Clearness
  0,                                      ! Rain Indicator
  0,                                      ! Snow Indicator
  21,                                     ! Day of Month
  12,                                     ! Month
  WinterDesignDay,                        ! Day Type
  0,                                      ! Daylight Saving Time Indicator
  Dewpoint,                               ! Humidity Indicating Type
  ,                                       ! Humidity Indicating Day Schedule Name
  DefaultMultipliers,                     ! Dry-Bulb Temperature Range Modifier Type
  ,                                       ! Dry-Bulb Temperature Range Modifier Schedule Name
  ASHRAEClearSky;                         ! Solar Model Indicator

OS:ComponentData,
  {864130c2-6ee6-4aa5-bcae-f19207168304}, ! Handle
  Component Data 1,                       ! Name
  {ef298fd3-5817-488a-8465-c49720a6bd94}, ! UUID
  {f5217f58-a2aa-4e7d-b6fd-e738c64f7d76}, ! Version UUID
  1366306316,                             ! Creation Timestamp
  1366306316,                             ! Version Timestamp
  {32082292-cc5d-4806-b4c8-49d9c46f6ea3}; ! Name of Object 1

