
OS:Version,
  {79f03d4d-85f8-4d88-b971-6e6deed3f455}, ! Handle
  0.9.3;                                  ! Version Identifier

OS:SizingPeriod:DesignDay,
  {6b0d5e1d-467d-4649-8bc0-02ad66eacfe3}, ! Handle
  Sitka Japonski Ap Ann Clg .4% Condns WB=>MDB, ! Name
  18.2,                                   ! Maximum Dry-Bulb Temperature {C}
  4.8,                                    ! Daily Dry-Bulb Temperature Range {deltaC}
  15.8,                                   ! Humidity Indicating Conditions at Maximum Dry-Bulb {BasedOnField A3}
  101277,                                 ! Barometric Pressure {Pa}
  3.4,                                    ! Wind Speed {m/s}
  220,                                    ! Wind Direction {deg}
  0,                                      ! Sky Clearness
  0,                                      ! Rain Indicator
  0,                                      ! Snow Indicator
  21,                                     ! Day of Month
  8,                                      ! Month
  SummerDesignDay,                        ! Day Type
  0,                                      ! Daylight Saving Time Indicator
  Wetbulb,                                ! Humidity Indicating Type
  ,                                       ! Humidity Indicating Day Schedule Name
  DefaultMultipliers,                     ! Dry-Bulb Temperature Range Modifier Type
  ,                                       ! Dry-Bulb Temperature Range Modifier Schedule Name
  ASHRAETau,                              ! Solar Model Indicator
  ,                                       ! Beam Solar Day Schedule Name
  ,                                       ! Diffuse Solar Day Schedule Name
  0.368,                                  ! ASHRAE Taub {dimensionless}
  2.385;                                  ! ASHRAE Taud {dimensionless}

OS:ComponentData,
  {f41bbdb3-853c-499d-be77-30aa5d6fe637}, ! Handle
  Component Data 1,                       ! Name
  {b38db340-e006-415c-a96b-d348b1384211}, ! UUID
  {edc1ea32-f936-4ceb-a2e8-48f595e3688b}, ! Version UUID
  1366305552,                             ! Creation Timestamp
  1366305552,                             ! Version Timestamp
  {6b0d5e1d-467d-4649-8bc0-02ad66eacfe3}; ! Name of Object 1

