
OS:Version,
  {634cb6fd-5cfa-45ae-a3db-0ddd69eb4830}, ! Handle
  0.9.3;                                  ! Version Identifier

OS:SizingPeriod:DesignDay,
  {0adcf519-2aac-421b-b0ac-a1aea0bfe66e}, ! Handle
  Norwood Memorial Ann Htg Wind 99% Condns WS=>MCDB, ! Name
  1.2,                                    ! Maximum Dry-Bulb Temperature {C}
  0,                                      ! Daily Dry-Bulb Temperature Range {deltaC}
  1.2,                                    ! Humidity Indicating Conditions at Maximum Dry-Bulb {BasedOnField A3}
  101145,                                 ! Barometric Pressure {Pa}
  9.8,                                    ! Wind Speed {m/s}
  340,                                    ! Wind Direction {deg}
  0,                                      ! Sky Clearness
  0,                                      ! Rain Indicator
  0,                                      ! Snow Indicator
  21,                                     ! Day of Month
  1,                                      ! Month
  WinterDesignDay,                        ! Day Type
  0,                                      ! Daylight Saving Time Indicator
  Wetbulb,                                ! Humidity Indicating Type
  ,                                       ! Humidity Indicating Day Schedule Name
  DefaultMultipliers,                     ! Dry-Bulb Temperature Range Modifier Type
  ,                                       ! Dry-Bulb Temperature Range Modifier Schedule Name
  ASHRAEClearSky;                         ! Solar Model Indicator

OS:ComponentData,
  {51f85a94-52a3-4607-84a6-97afa3e8e13d}, ! Handle
  Component Data 1,                       ! Name
  {d3289ef5-4d3b-4122-8e62-99b097b132c6}, ! UUID
  {8bf8e20c-7a07-45bb-a905-91b574aa5f23}, ! Version UUID
  1366307810,                             ! Creation Timestamp
  1366307810,                             ! Version Timestamp
  {0adcf519-2aac-421b-b0ac-a1aea0bfe66e}; ! Name of Object 1

