
OS:Version,
  {9f678032-55ef-4148-bde4-541b57414781}, ! Handle
  0.9.3;                                  ! Version Identifier

OS:SizingPeriod:DesignDay,
  {0eb54e3d-3623-4d7c-9e06-1b66a9f3d325}, ! Handle
  Savannah Intl Ap Ann Htg 99.6% Condns DB, ! Name
  -2.7,                                   ! Maximum Dry-Bulb Temperature {C}
  0,                                      ! Daily Dry-Bulb Temperature Range {deltaC}
  -2.7,                                   ! Humidity Indicating Conditions at Maximum Dry-Bulb {BasedOnField A3}
  101157,                                 ! Barometric Pressure {Pa}
  2.1,                                    ! Wind Speed {m/s}
  300,                                    ! Wind Direction {deg}
  0,                                      ! Sky Clearness
  0,                                      ! Rain Indicator
  0,                                      ! Snow Indicator
  21,                                     ! Day of Month
  1,                                      ! Month
  WinterDesignDay,                        ! Day Type
  0,                                      ! Daylight Saving Time Indicator
  Wetbulb,                                ! Humidity Indicating Type
  ,                                       ! Humidity Indicating Day Schedule Name
  DefaultMultipliers,                     ! Dry-Bulb Temperature Range Modifier Type
  ,                                       ! Dry-Bulb Temperature Range Modifier Schedule Name
  ASHRAEClearSky;                         ! Solar Model Indicator

OS:ComponentData,
  {9705ffa1-3f96-487b-9d09-91791f2e5da4}, ! Handle
  Component Data 1,                       ! Name
  {197844f3-3316-4af9-9033-f3f2d9820816}, ! UUID
  {685656d4-66ea-44f7-b843-6e717b1dd366}, ! Version UUID
  1366307055,                             ! Creation Timestamp
  1366307055,                             ! Version Timestamp
  {0eb54e3d-3623-4d7c-9e06-1b66a9f3d325}; ! Name of Object 1

