
OS:Version,
  {490d5a4d-e5fe-491f-85e2-2b346ae0bd10}, ! Handle
  0.9.3;                                  ! Version Identifier

OS:SizingPeriod:DesignDay,
  {7b7c0370-c156-41fb-aee3-8cdf27f48614}, ! Handle
  Thief River Awos Ann Clg 2% Condns DP=>MDB, ! Name
  23.6,                                   ! Maximum Dry-Bulb Temperature {C}
  10.3,                                   ! Daily Dry-Bulb Temperature Range {deltaC}
  18.2,                                   ! Humidity Indicating Conditions at Maximum Dry-Bulb {BasedOnField A3}
  97307,                                  ! Barometric Pressure {Pa}
  5.7,                                    ! Wind Speed {m/s}
  200,                                    ! Wind Direction {deg}
  0,                                      ! Sky Clearness
  0,                                      ! Rain Indicator
  0,                                      ! Snow Indicator
  21,                                     ! Day of Month
  7,                                      ! Month
  SummerDesignDay,                        ! Day Type
  0,                                      ! Daylight Saving Time Indicator
  Dewpoint,                               ! Humidity Indicating Type
  ,                                       ! Humidity Indicating Day Schedule Name
  DefaultMultipliers,                     ! Dry-Bulb Temperature Range Modifier Type
  ,                                       ! Dry-Bulb Temperature Range Modifier Schedule Name
  ASHRAETau,                              ! Solar Model Indicator
  ,                                       ! Beam Solar Day Schedule Name
  ,                                       ! Diffuse Solar Day Schedule Name
  0.394,                                  ! ASHRAE Taub {dimensionless}
  2.258;                                  ! ASHRAE Taud {dimensionless}

OS:ComponentData,
  {87e0cb4d-9e6d-43c4-b01f-b8ad16fc08d2}, ! Handle
  Component Data 1,                       ! Name
  {9b02fb29-559f-4f32-b020-82b1ec9cf365}, ! UUID
  {3ae3f8e5-2eb6-4890-b676-f320d6a99bf3}, ! Version UUID
  1366308441,                             ! Creation Timestamp
  1366308441,                             ! Version Timestamp
  {7b7c0370-c156-41fb-aee3-8cdf27f48614}; ! Name of Object 1

