
OS:Version,
  {358fadf4-a05f-4dc0-b9d3-4e87d16b4338}, ! Handle
  0.9.3;                                  ! Version Identifier

OS:SizingPeriod:DesignDay,
  {b065d876-7e48-40af-8b92-2033bf607c9c}, ! Handle
  Portland Ann Clg 1% Condns WB=>MDB,     ! Name
  29.2,                                   ! Maximum Dry-Bulb Temperature {C}
  12.2,                                   ! Daily Dry-Bulb Temperature Range {deltaC}
  19.9,                                   ! Humidity Indicating Conditions at Maximum Dry-Bulb {BasedOnField A3}
  101181,                                 ! Barometric Pressure {Pa}
  4.7,                                    ! Wind Speed {m/s}
  310,                                    ! Wind Direction {deg}
  0,                                      ! Sky Clearness
  0,                                      ! Rain Indicator
  0,                                      ! Snow Indicator
  21,                                     ! Day of Month
  8,                                      ! Month
  SummerDesignDay,                        ! Day Type
  0,                                      ! Daylight Saving Time Indicator
  Wetbulb,                                ! Humidity Indicating Type
  ,                                       ! Humidity Indicating Day Schedule Name
  DefaultMultipliers,                     ! Dry-Bulb Temperature Range Modifier Type
  ,                                       ! Dry-Bulb Temperature Range Modifier Schedule Name
  ASHRAETau,                              ! Solar Model Indicator
  ,                                       ! Beam Solar Day Schedule Name
  ,                                       ! Diffuse Solar Day Schedule Name
  0.358,                                  ! ASHRAE Taub {dimensionless}
  2.549;                                  ! ASHRAE Taud {dimensionless}

OS:ComponentData,
  {ab597fe3-809c-4613-a0d9-147382ea34b5}, ! Handle
  Component Data 1,                       ! Name
  {eb4f1a1a-c828-46de-b4f8-d755ab7982db}, ! UUID
  {13afde72-2211-4722-9b9c-5c4bf63fe360}, ! Version UUID
  1366310078,                             ! Creation Timestamp
  1366310078,                             ! Version Timestamp
  {b065d876-7e48-40af-8b92-2033bf607c9c}; ! Name of Object 1

