
OS:Version,
  {523a6916-465b-43cc-a643-f9b6ac9c36ef}, ! Handle
  0.9.3;                                  ! Version Identifier

OS:SizingPeriod:DesignDay,
  {1272d199-992b-4092-ba33-4c3ec84df198}, ! Handle
  Sidney Municipal Ap Ann Htg Wind 99% Condns WS=>MCDB, ! Name
  0.7,                                    ! Maximum Dry-Bulb Temperature {C}
  0,                                      ! Daily Dry-Bulb Temperature Range {deltaC}
  0.7,                                    ! Humidity Indicating Conditions at Maximum Dry-Bulb {BasedOnField A3}
  86514,                                  ! Barometric Pressure {Pa}
  14.6,                                   ! Wind Speed {m/s}
  300,                                    ! Wind Direction {deg}
  0,                                      ! Sky Clearness
  0,                                      ! Rain Indicator
  0,                                      ! Snow Indicator
  21,                                     ! Day of Month
  12,                                     ! Month
  WinterDesignDay,                        ! Day Type
  0,                                      ! Daylight Saving Time Indicator
  Wetbulb,                                ! Humidity Indicating Type
  ,                                       ! Humidity Indicating Day Schedule Name
  DefaultMultipliers,                     ! Dry-Bulb Temperature Range Modifier Type
  ,                                       ! Dry-Bulb Temperature Range Modifier Schedule Name
  ASHRAEClearSky;                         ! Solar Model Indicator

OS:ComponentData,
  {09698b40-30ce-4a82-8241-e5ed8cf951aa}, ! Handle
  Component Data 1,                       ! Name
  {9d725de5-694f-418d-b94d-fc55de54942f}, ! UUID
  {c55ddacc-5537-4acf-9cd6-7e70236344e3}, ! Version UUID
  1366309202,                             ! Creation Timestamp
  1366309202,                             ! Version Timestamp
  {1272d199-992b-4092-ba33-4c3ec84df198}; ! Name of Object 1

