
OS:Version,
  {352c8a2c-551a-4534-80b7-b495454d3228}, ! Handle
  0.9.3;                                  ! Version Identifier

OS:SizingPeriod:DesignDay,
  {ab11aada-7f93-4373-ab8e-e2c2f7b690d8}, ! Handle
  Southwest Florida I Ann Clg 1% Condns DB=>MWB, ! Name
  33.7,                                   ! Maximum Dry-Bulb Temperature {C}
  9.1,                                    ! Daily Dry-Bulb Temperature Range {deltaC}
  24.9,                                   ! Humidity Indicating Conditions at Maximum Dry-Bulb {BasedOnField A3}
  101217,                                 ! Barometric Pressure {Pa}
  3.7,                                    ! Wind Speed {m/s}
  100,                                    ! Wind Direction {deg}
  0,                                      ! Sky Clearness
  0,                                      ! Rain Indicator
  0,                                      ! Snow Indicator
  21,                                     ! Day of Month
  8,                                      ! Month
  SummerDesignDay,                        ! Day Type
  0,                                      ! Daylight Saving Time Indicator
  Wetbulb,                                ! Humidity Indicating Type
  ,                                       ! Humidity Indicating Day Schedule Name
  DefaultMultipliers,                     ! Dry-Bulb Temperature Range Modifier Type
  ,                                       ! Dry-Bulb Temperature Range Modifier Schedule Name
  ASHRAETau,                              ! Solar Model Indicator
  ,                                       ! Beam Solar Day Schedule Name
  ,                                       ! Diffuse Solar Day Schedule Name
  0.491,                                  ! ASHRAE Taub {dimensionless}
  2.021;                                  ! ASHRAE Taud {dimensionless}

OS:ComponentData,
  {8d99cc6b-7e89-4184-b619-dd935d672cd5}, ! Handle
  Component Data 1,                       ! Name
  {0f49bdb7-a5f7-4a6a-9e47-e74f6222ce02}, ! UUID
  {aae14fc3-5cf1-40ff-b98d-ff1e82eac253}, ! Version UUID
  1366306912,                             ! Creation Timestamp
  1366306912,                             ! Version Timestamp
  {ab11aada-7f93-4373-ab8e-e2c2f7b690d8}; ! Name of Object 1

