
OS:Version,
  {b7eca6cb-bf5b-424d-be3d-5036b7dae0cd}, ! Handle
  0.9.3;                                  ! Version Identifier

OS:SizingPeriod:DesignDay,
  {890cc76e-cab0-4257-8c2e-64ea0414fee6}, ! Handle
  NORFOLK Ann Clg .4% Condns DB=>MWB,     ! Name
  34.8,                                   ! Maximum Dry-Bulb Temperature {C}
  11.9,                                   ! Daily Dry-Bulb Temperature Range {deltaC}
  23.6,                                   ! Humidity Indicating Conditions at Maximum Dry-Bulb {BasedOnField A3}
  95793,                                  ! Barometric Pressure {Pa}
  6.5,                                    ! Wind Speed {m/s}
  190,                                    ! Wind Direction {deg}
  0,                                      ! Sky Clearness
  0,                                      ! Rain Indicator
  0,                                      ! Snow Indicator
  21,                                     ! Day of Month
  7,                                      ! Month
  SummerDesignDay,                        ! Day Type
  0,                                      ! Daylight Saving Time Indicator
  Wetbulb,                                ! Humidity Indicating Type
  ,                                       ! Humidity Indicating Day Schedule Name
  DefaultMultipliers,                     ! Dry-Bulb Temperature Range Modifier Type
  ,                                       ! Dry-Bulb Temperature Range Modifier Schedule Name
  ASHRAETau,                              ! Solar Model Indicator
  ,                                       ! Beam Solar Day Schedule Name
  ,                                       ! Diffuse Solar Day Schedule Name
  0.402,                                  ! ASHRAE Taub {dimensionless}
  2.247;                                  ! ASHRAE Taud {dimensionless}

OS:ComponentData,
  {925ad753-4a95-4531-8ad3-13053c131472}, ! Handle
  Component Data 1,                       ! Name
  {0dfce221-53d1-4915-909f-4a184a654b46}, ! UUID
  {81b5e292-526b-4432-bf1e-c683a6043bb5}, ! Version UUID
  1366309153,                             ! Creation Timestamp
  1366309153,                             ! Version Timestamp
  {890cc76e-cab0-4257-8c2e-64ea0414fee6}; ! Name of Object 1

