
OS:Version,
  {e72e0068-8245-4bac-bb91-10193aaf9b21}, ! Handle
  0.9.3;                                  ! Version Identifier

OS:SizingPeriod:DesignDay,
  {bd97449f-49a5-4f56-9971-3ecec6a7b526}, ! Handle
  Walnut Ridge  Awos Ann Hum_n 99.6% Condns DP=>MCDB, ! Name
  -7.6,                                   ! Maximum Dry-Bulb Temperature {C}
  0,                                      ! Daily Dry-Bulb Temperature Range {deltaC}
  -16.6,                                  ! Humidity Indicating Conditions at Maximum Dry-Bulb {BasedOnField A3}
  100332,                                 ! Barometric Pressure {Pa}
  4.1,                                    ! Wind Speed {m/s}
  320,                                    ! Wind Direction {deg}
  0,                                      ! Sky Clearness
  0,                                      ! Rain Indicator
  0,                                      ! Snow Indicator
  21,                                     ! Day of Month
  1,                                      ! Month
  WinterDesignDay,                        ! Day Type
  0,                                      ! Daylight Saving Time Indicator
  Dewpoint,                               ! Humidity Indicating Type
  ,                                       ! Humidity Indicating Day Schedule Name
  DefaultMultipliers,                     ! Dry-Bulb Temperature Range Modifier Type
  ,                                       ! Dry-Bulb Temperature Range Modifier Schedule Name
  ASHRAEClearSky;                         ! Solar Model Indicator

OS:ComponentData,
  {3c3228a6-bae1-4b5a-9736-96c5f1dbcbbe}, ! Handle
  Component Data 1,                       ! Name
  {2c8a781c-351f-4c66-a580-1829a54ef676}, ! UUID
  {85468c52-2644-459a-a296-fa8e26c89276}, ! Version UUID
  1366306258,                             ! Creation Timestamp
  1366306258,                             ! Version Timestamp
  {bd97449f-49a5-4f56-9971-3ecec6a7b526}; ! Name of Object 1

