
OS:Version,
  {e6f812b3-634f-40aa-b714-1e3819ed9f0c}, ! Handle
  0.9.3;                                  ! Version Identifier

OS:SizingPeriod:DesignDay,
  {9e3b2f8b-90e9-4a23-a283-40885274f30a}, ! Handle
  San Diego Miramar Nas Ann Clg 2% Condns WB=>MDB, ! Name
  26.7,                                   ! Maximum Dry-Bulb Temperature {C}
  9.9,                                    ! Daily Dry-Bulb Temperature Range {deltaC}
  20.7,                                   ! Humidity Indicating Conditions at Maximum Dry-Bulb {BasedOnField A3}
  99654,                                  ! Barometric Pressure {Pa}
  3.2,                                    ! Wind Speed {m/s}
  320,                                    ! Wind Direction {deg}
  0,                                      ! Sky Clearness
  0,                                      ! Rain Indicator
  0,                                      ! Snow Indicator
  21,                                     ! Day of Month
  8,                                      ! Month
  SummerDesignDay,                        ! Day Type
  0,                                      ! Daylight Saving Time Indicator
  Wetbulb,                                ! Humidity Indicating Type
  ,                                       ! Humidity Indicating Day Schedule Name
  DefaultMultipliers,                     ! Dry-Bulb Temperature Range Modifier Type
  ,                                       ! Dry-Bulb Temperature Range Modifier Schedule Name
  ASHRAETau,                              ! Solar Model Indicator
  ,                                       ! Beam Solar Day Schedule Name
  ,                                       ! Diffuse Solar Day Schedule Name
  0.416,                                  ! ASHRAE Taub {dimensionless}
  2.234;                                  ! ASHRAE Taud {dimensionless}

OS:ComponentData,
  {334ee88e-fe6f-4bee-9230-affec0819dd3}, ! Handle
  Component Data 1,                       ! Name
  {7748e1cf-fd49-41b8-bb3c-73f35f06837f}, ! UUID
  {aeb375a2-34e8-4c12-884b-9495c56af935}, ! Version UUID
  1366306578,                             ! Creation Timestamp
  1366306578,                             ! Version Timestamp
  {9e3b2f8b-90e9-4a23-a283-40885274f30a}; ! Name of Object 1

