
OS:Version,
  {3461d603-5677-492f-a220-fa34e9051e85}, ! Handle
  0.9.3;                                  ! Version Identifier

OS:SizingPeriod:DesignDay,
  {1efe4c8f-e1ee-4983-9366-27008545acbe}, ! Handle
  Salinas Municipal Ap Ann Clg 1% Condns Enth=>MDB, ! Name
  23.9,                                   ! Maximum Dry-Bulb Temperature {C}
  8.7,                                    ! Daily Dry-Bulb Temperature Range {deltaC}
  50100,                                  ! Humidity Indicating Conditions at Maximum Dry-Bulb {BasedOnField A3}
  101073,                                 ! Barometric Pressure {Pa}
  4.6,                                    ! Wind Speed {m/s}
  310,                                    ! Wind Direction {deg}
  0,                                      ! Sky Clearness
  0,                                      ! Rain Indicator
  0,                                      ! Snow Indicator
  21,                                     ! Day of Month
  8,                                      ! Month
  SummerDesignDay,                        ! Day Type
  0,                                      ! Daylight Saving Time Indicator
  Enthalpy,                               ! Humidity Indicating Type
  ,                                       ! Humidity Indicating Day Schedule Name
  DefaultMultipliers,                     ! Dry-Bulb Temperature Range Modifier Type
  ,                                       ! Dry-Bulb Temperature Range Modifier Schedule Name
  ASHRAETau,                              ! Solar Model Indicator
  ,                                       ! Beam Solar Day Schedule Name
  ,                                       ! Diffuse Solar Day Schedule Name
  0.376,                                  ! ASHRAE Taub {dimensionless}
  2.428;                                  ! ASHRAE Taud {dimensionless}

OS:ComponentData,
  {0ece7b81-1ef9-4023-8d4d-baa525e84019}, ! Handle
  Component Data 1,                       ! Name
  {947b2372-0bf9-47fb-8b32-d6c814e0a054}, ! UUID
  {d742bddc-3ffb-4d70-b232-833012e789da}, ! Version UUID
  1366306571,                             ! Creation Timestamp
  1366306571,                             ! Version Timestamp
  {1efe4c8f-e1ee-4983-9366-27008545acbe}; ! Name of Object 1

