
OS:Version,
  {6025d514-524a-4718-96d6-2d12e0e2ca02}, ! Handle
  0.9.3;                                  ! Version Identifier

OS:SizingPeriod:DesignDay,
  {92759bb7-169c-41e3-8a98-f453c6b0dd0b}, ! Handle
  PEORIA Ann Clg 1% Condns DB=>MWB,       ! Name
  32.3,                                   ! Maximum Dry-Bulb Temperature {C}
  10.6,                                   ! Daily Dry-Bulb Temperature Range {deltaC}
  24.1,                                   ! Humidity Indicating Conditions at Maximum Dry-Bulb {BasedOnField A3}
  98957,                                  ! Barometric Pressure {Pa}
  4.8,                                    ! Wind Speed {m/s}
  220,                                    ! Wind Direction {deg}
  0,                                      ! Sky Clearness
  0,                                      ! Rain Indicator
  0,                                      ! Snow Indicator
  21,                                     ! Day of Month
  7,                                      ! Month
  SummerDesignDay,                        ! Day Type
  0,                                      ! Daylight Saving Time Indicator
  Wetbulb,                                ! Humidity Indicating Type
  ,                                       ! Humidity Indicating Day Schedule Name
  DefaultMultipliers,                     ! Dry-Bulb Temperature Range Modifier Type
  ,                                       ! Dry-Bulb Temperature Range Modifier Schedule Name
  ASHRAETau,                              ! Solar Model Indicator
  ,                                       ! Beam Solar Day Schedule Name
  ,                                       ! Diffuse Solar Day Schedule Name
  0.455,                                  ! ASHRAE Taub {dimensionless}
  2.051;                                  ! ASHRAE Taud {dimensionless}

OS:ComponentData,
  {b336bc54-a1cb-4a95-9c1f-603bdba21718}, ! Handle
  Component Data 1,                       ! Name
  {0d2bd7e5-b337-41c6-995e-d382dbfd2a3c}, ! UUID
  {31a091bd-5b61-43b0-b98e-a7f4b7189e20}, ! Version UUID
  1366307384,                             ! Creation Timestamp
  1366307384,                             ! Version Timestamp
  {92759bb7-169c-41e3-8a98-f453c6b0dd0b}; ! Name of Object 1

