
OS:Version,
  {f82b2466-56d3-4940-96b7-14cdcb612fb3}, ! Handle
  0.9.3;                                  ! Version Identifier

OS:SizingPeriod:DesignDay,
  {319c7557-85ed-4173-82fb-28c55a657c6d}, ! Handle
  Yakima Air Terminal Ann Hum_n 99.6% Condns DP=>MCDB, ! Name
  -12.8,                                  ! Maximum Dry-Bulb Temperature {C}
  0,                                      ! Daily Dry-Bulb Temperature Range {deltaC}
  -18.8,                                  ! Humidity Indicating Conditions at Maximum Dry-Bulb {BasedOnField A3}
  97493,                                  ! Barometric Pressure {Pa}
  2.4,                                    ! Wind Speed {m/s}
  280,                                    ! Wind Direction {deg}
  0,                                      ! Sky Clearness
  0,                                      ! Rain Indicator
  0,                                      ! Snow Indicator
  21,                                     ! Day of Month
  12,                                     ! Month
  WinterDesignDay,                        ! Day Type
  0,                                      ! Daylight Saving Time Indicator
  Dewpoint,                               ! Humidity Indicating Type
  ,                                       ! Humidity Indicating Day Schedule Name
  DefaultMultipliers,                     ! Dry-Bulb Temperature Range Modifier Type
  ,                                       ! Dry-Bulb Temperature Range Modifier Schedule Name
  ASHRAEClearSky;                         ! Solar Model Indicator

OS:ComponentData,
  {ab1facfa-db36-4785-bdb1-34675c8e7785}, ! Handle
  Component Data 1,                       ! Name
  {2e4b0366-09d4-40cf-bac1-c4551dbdc8eb}, ! UUID
  {d33e8d81-ddee-40d9-aca9-9250e5c2eef9}, ! Version UUID
  1366311452,                             ! Creation Timestamp
  1366311452,                             ! Version Timestamp
  {319c7557-85ed-4173-82fb-28c55a657c6d}; ! Name of Object 1

