
OS:Version,
  {6a5a04dd-479b-4740-8a8b-428900456706}, ! Handle
  0.9.3;                                  ! Version Identifier

OS:SizingPeriod:DesignDay,
  {904805dc-7e1d-43e1-befb-12b9c59b9951}, ! Handle
  Orr Ann Clg 2% Condns DP=>MDB,          ! Name
  23.3,                                   ! Maximum Dry-Bulb Temperature {C}
  12.4,                                   ! Daily Dry-Bulb Temperature Range {deltaC}
  19.8,                                   ! Humidity Indicating Conditions at Maximum Dry-Bulb {BasedOnField A3}
  96646,                                  ! Barometric Pressure {Pa}
  4.3,                                    ! Wind Speed {m/s}
  190,                                    ! Wind Direction {deg}
  0,                                      ! Sky Clearness
  0,                                      ! Rain Indicator
  0,                                      ! Snow Indicator
  21,                                     ! Day of Month
  7,                                      ! Month
  SummerDesignDay,                        ! Day Type
  0,                                      ! Daylight Saving Time Indicator
  Dewpoint,                               ! Humidity Indicating Type
  ,                                       ! Humidity Indicating Day Schedule Name
  DefaultMultipliers,                     ! Dry-Bulb Temperature Range Modifier Type
  ,                                       ! Dry-Bulb Temperature Range Modifier Schedule Name
  ASHRAETau,                              ! Solar Model Indicator
  ,                                       ! Beam Solar Day Schedule Name
  ,                                       ! Diffuse Solar Day Schedule Name
  0.404,                                  ! ASHRAE Taub {dimensionless}
  2.189;                                  ! ASHRAE Taud {dimensionless}

OS:ComponentData,
  {4c976a25-16fd-4112-b27e-5df91d5688b8}, ! Handle
  Component Data 1,                       ! Name
  {451c12ec-b7a9-48d3-afb0-fed8f52046cb}, ! UUID
  {772b79eb-21ed-47ca-b3e3-38b83bba3470}, ! Version UUID
  1366308349,                             ! Creation Timestamp
  1366308349,                             ! Version Timestamp
  {904805dc-7e1d-43e1-befb-12b9c59b9951}; ! Name of Object 1

