
OS:Version,
  {d07e95fe-54fb-4e81-ae38-5cbd855df01a}, ! Handle
  0.9.3;                                  ! Version Identifier

OS:SizingPeriod:DesignDay,
  {2fe41b2a-ae90-44ee-b68d-84078cb45511}, ! Handle
  Wiscasset Ann Hum_n 99% Condns DP=>MCDB, ! Name
  -14.7,                                  ! Maximum Dry-Bulb Temperature {C}
  0,                                      ! Daily Dry-Bulb Temperature Range {deltaC}
  -24.2,                                  ! Humidity Indicating Conditions at Maximum Dry-Bulb {BasedOnField A3}
  101073,                                 ! Barometric Pressure {Pa}
  1.3,                                    ! Wind Speed {m/s}
  280,                                    ! Wind Direction {deg}
  0,                                      ! Sky Clearness
  0,                                      ! Rain Indicator
  0,                                      ! Snow Indicator
  21,                                     ! Day of Month
  1,                                      ! Month
  WinterDesignDay,                        ! Day Type
  0,                                      ! Daylight Saving Time Indicator
  Dewpoint,                               ! Humidity Indicating Type
  ,                                       ! Humidity Indicating Day Schedule Name
  DefaultMultipliers,                     ! Dry-Bulb Temperature Range Modifier Type
  ,                                       ! Dry-Bulb Temperature Range Modifier Schedule Name
  ASHRAEClearSky;                         ! Solar Model Indicator

OS:ComponentData,
  {7779fed4-6ca4-459a-8138-0d9b752dcf2b}, ! Handle
  Component Data 1,                       ! Name
  {5d290614-a933-4b0c-b1d1-b8ca71945736}, ! UUID
  {365dfa99-eae1-4b2b-874d-1c4f0db92384}, ! Version UUID
  1366307934,                             ! Creation Timestamp
  1366307934,                             ! Version Timestamp
  {2fe41b2a-ae90-44ee-b68d-84078cb45511}; ! Name of Object 1

