
OS:Version,
  {e41a3db5-d58b-4416-a002-1934f10695b0}, ! Handle
  0.9.3;                                  ! Version Identifier

OS:SizingPeriod:DesignDay,
  {f6e26517-713a-4144-aa44-260869730e0e}, ! Handle
  Point Hope  Awos Ann Clg 2% Condns DP=>MDB, ! Name
  10.3,                                   ! Maximum Dry-Bulb Temperature {C}
  3.2,                                    ! Daily Dry-Bulb Temperature Range {deltaC}
  8,                                      ! Humidity Indicating Conditions at Maximum Dry-Bulb {BasedOnField A3}
  101277,                                 ! Barometric Pressure {Pa}
  4.6,                                    ! Wind Speed {m/s}
  10,                                     ! Wind Direction {deg}
  0,                                      ! Sky Clearness
  0,                                      ! Rain Indicator
  0,                                      ! Snow Indicator
  21,                                     ! Day of Month
  8,                                      ! Month
  SummerDesignDay,                        ! Day Type
  0,                                      ! Daylight Saving Time Indicator
  Dewpoint,                               ! Humidity Indicating Type
  ,                                       ! Humidity Indicating Day Schedule Name
  DefaultMultipliers,                     ! Dry-Bulb Temperature Range Modifier Type
  ,                                       ! Dry-Bulb Temperature Range Modifier Schedule Name
  ASHRAETau,                              ! Solar Model Indicator
  ,                                       ! Beam Solar Day Schedule Name
  ,                                       ! Diffuse Solar Day Schedule Name
  0.392,                                  ! ASHRAE Taub {dimensionless}
  2.093;                                  ! ASHRAE Taud {dimensionless}

OS:ComponentData,
  {9eddf602-891b-47d5-8347-d6f00d3a54b6}, ! Handle
  Component Data 1,                       ! Name
  {4ed2b7f3-c4a9-418f-a4b9-ece4791f5714}, ! UUID
  {95e1f3b4-903e-4f2d-a665-894d0cfd2167}, ! Version UUID
  1366305494,                             ! Creation Timestamp
  1366305494,                             ! Version Timestamp
  {f6e26517-713a-4144-aa44-260869730e0e}; ! Name of Object 1

