
OS:Version,
  {40ba90b2-1b30-46ae-9f69-f2d7900e5531}, ! Handle
  0.9.3;                                  ! Version Identifier

OS:SizingPeriod:DesignDay,
  {ed17516f-e795-427e-90f3-a1cfa1aa7527}, ! Handle
  Sand Point Ann Clg 1% Condns Enth=>MDB, ! Name
  14.4,                                   ! Maximum Dry-Bulb Temperature {C}
  3.8,                                    ! Daily Dry-Bulb Temperature Range {deltaC}
  35100,                                  ! Humidity Indicating Conditions at Maximum Dry-Bulb {BasedOnField A3}
  101241,                                 ! Barometric Pressure {Pa}
  4.2,                                    ! Wind Speed {m/s}
  350,                                    ! Wind Direction {deg}
  0,                                      ! Sky Clearness
  0,                                      ! Rain Indicator
  0,                                      ! Snow Indicator
  21,                                     ! Day of Month
  8,                                      ! Month
  SummerDesignDay,                        ! Day Type
  0,                                      ! Daylight Saving Time Indicator
  Enthalpy,                               ! Humidity Indicating Type
  ,                                       ! Humidity Indicating Day Schedule Name
  DefaultMultipliers,                     ! Dry-Bulb Temperature Range Modifier Type
  ,                                       ! Dry-Bulb Temperature Range Modifier Schedule Name
  ASHRAETau,                              ! Solar Model Indicator
  ,                                       ! Beam Solar Day Schedule Name
  ,                                       ! Diffuse Solar Day Schedule Name
  0.381,                                  ! ASHRAE Taub {dimensionless}
  2.28;                                   ! ASHRAE Taud {dimensionless}

OS:ComponentData,
  {18ffb385-e635-48d5-8a1f-802512472599}, ! Handle
  Component Data 1,                       ! Name
  {2b0df287-2cc0-4cf2-b603-26de05361bc2}, ! UUID
  {9befb5f2-e4b1-43c9-b2a0-dabe910c8a94}, ! Version UUID
  1366305529,                             ! Creation Timestamp
  1366305529,                             ! Version Timestamp
  {ed17516f-e795-427e-90f3-a1cfa1aa7527}; ! Name of Object 1

