
OS:Version,
  {2862348e-fb66-4061-9950-6aa382e08091}, ! Handle
  0.9.3;                                  ! Version Identifier

OS:SizingPeriod:DesignDay,
  {4543c6ab-8f1f-483d-a4e1-dc8587e46ab9}, ! Handle
  SALEM Ann Clg .4% Condns Enth=>MDB,     ! Name
  31.5,                                   ! Maximum Dry-Bulb Temperature {C}
  15.4,                                   ! Daily Dry-Bulb Temperature Range {deltaC}
  58600,                                  ! Humidity Indicating Conditions at Maximum Dry-Bulb {BasedOnField A3}
  100594,                                 ! Barometric Pressure {Pa}
  4.3,                                    ! Wind Speed {m/s}
  0,                                      ! Wind Direction {deg}
  0,                                      ! Sky Clearness
  0,                                      ! Rain Indicator
  0,                                      ! Snow Indicator
  21,                                     ! Day of Month
  8,                                      ! Month
  SummerDesignDay,                        ! Day Type
  0,                                      ! Daylight Saving Time Indicator
  Enthalpy,                               ! Humidity Indicating Type
  ,                                       ! Humidity Indicating Day Schedule Name
  DefaultMultipliers,                     ! Dry-Bulb Temperature Range Modifier Type
  ,                                       ! Dry-Bulb Temperature Range Modifier Schedule Name
  ASHRAETau,                              ! Solar Model Indicator
  ,                                       ! Beam Solar Day Schedule Name
  ,                                       ! Diffuse Solar Day Schedule Name
  0.355,                                  ! ASHRAE Taub {dimensionless}
  2.578;                                  ! ASHRAE Taud {dimensionless}

OS:ComponentData,
  {22648dab-e912-415e-98a0-b1c26da2d119}, ! Handle
  Component Data 1,                       ! Name
  {afab5227-6812-4eeb-bc90-8c7a09240ab7}, ! UUID
  {6a10542e-2a74-4c9b-9795-303b77200528}, ! Version UUID
  1366310119,                             ! Creation Timestamp
  1366310119,                             ! Version Timestamp
  {4543c6ab-8f1f-483d-a4e1-dc8587e46ab9}; ! Name of Object 1

