
OS:Version,
  {68dab032-bf96-48c5-9002-3e791e29471a}, ! Handle
  0.9.3;                                  ! Version Identifier

OS:SizingPeriod:DesignDay,
  {50ea258e-99f9-46fe-a76d-9cdfbce13dbe}, ! Handle
  MEDFORD Ann Hum_n 99% Condns DP=>MCDB,  ! Name
  1.4,                                    ! Maximum Dry-Bulb Temperature {C}
  0,                                      ! Daily Dry-Bulb Temperature Range {deltaC}
  -6.2,                                   ! Humidity Indicating Conditions at Maximum Dry-Bulb {BasedOnField A3}
  96657,                                  ! Barometric Pressure {Pa}
  1,                                      ! Wind Speed {m/s}
  120,                                    ! Wind Direction {deg}
  0,                                      ! Sky Clearness
  0,                                      ! Rain Indicator
  0,                                      ! Snow Indicator
  21,                                     ! Day of Month
  12,                                     ! Month
  WinterDesignDay,                        ! Day Type
  0,                                      ! Daylight Saving Time Indicator
  Dewpoint,                               ! Humidity Indicating Type
  ,                                       ! Humidity Indicating Day Schedule Name
  DefaultMultipliers,                     ! Dry-Bulb Temperature Range Modifier Type
  ,                                       ! Dry-Bulb Temperature Range Modifier Schedule Name
  ASHRAEClearSky;                         ! Solar Model Indicator

OS:ComponentData,
  {70acfc43-c937-4389-a163-723b49da2f3f}, ! Handle
  Component Data 1,                       ! Name
  {253b0ae5-04c8-4320-ae92-b715c2f467a5}, ! UUID
  {e6388909-98dd-4fb7-bcfa-2dc4ad75db13}, ! Version UUID
  1366310040,                             ! Creation Timestamp
  1366310040,                             ! Version Timestamp
  {50ea258e-99f9-46fe-a76d-9cdfbce13dbe}; ! Name of Object 1

