
OS:Version,
  {2039a75d-efd7-4001-a622-cd2e45761b40}, ! Handle
  0.9.3;                                  ! Version Identifier

OS:SizingPeriod:DesignDay,
  {58be5a08-822a-486b-8caf-6ea6d14a8c48}, ! Handle
  Maxwell Afb Ann Htg 99.6% Condns DB,    ! Name
  -2.3,                                   ! Maximum Dry-Bulb Temperature {C}
  0,                                      ! Daily Dry-Bulb Temperature Range {deltaC}
  -2.3,                                   ! Humidity Indicating Conditions at Maximum Dry-Bulb {BasedOnField A3}
  100690,                                 ! Barometric Pressure {Pa}
  2.4,                                    ! Wind Speed {m/s}
  340,                                    ! Wind Direction {deg}
  0,                                      ! Sky Clearness
  0,                                      ! Rain Indicator
  0,                                      ! Snow Indicator
  21,                                     ! Day of Month
  1,                                      ! Month
  WinterDesignDay,                        ! Day Type
  0,                                      ! Daylight Saving Time Indicator
  Wetbulb,                                ! Humidity Indicating Type
  ,                                       ! Humidity Indicating Day Schedule Name
  DefaultMultipliers,                     ! Dry-Bulb Temperature Range Modifier Type
  ,                                       ! Dry-Bulb Temperature Range Modifier Schedule Name
  ASHRAEClearSky;                         ! Solar Model Indicator

OS:ComponentData,
  {5901db03-1ea7-4098-88cb-b4df656ea0ad}, ! Handle
  Component Data 1,                       ! Name
  {78353da8-c526-449d-8a61-27dd18b95e7a}, ! UUID
  {18583427-9cc5-4e86-a6bc-f22c9ffc9d03}, ! Version UUID
  1366305679,                             ! Creation Timestamp
  1366305679,                             ! Version Timestamp
  {58be5a08-822a-486b-8caf-6ea6d14a8c48}; ! Name of Object 1

