
OS:Version,
  {7a7d8109-8592-4ce2-afab-7df4e118ac08}, ! Handle
  0.9.3;                                  ! Version Identifier

OS:SizingPeriod:DesignDay,
  {8d60c4f9-43cd-4490-9b5b-2a8deaeaf332}, ! Handle
  Waco Ann Clg .4% Condns DB=>MWB,        ! Name
  38.2,                                   ! Maximum Dry-Bulb Temperature {C}
  11.9,                                   ! Daily Dry-Bulb Temperature Range {deltaC}
  23.9,                                   ! Humidity Indicating Conditions at Maximum Dry-Bulb {BasedOnField A3}
  99477,                                  ! Barometric Pressure {Pa}
  4.9,                                    ! Wind Speed {m/s}
  180,                                    ! Wind Direction {deg}
  0,                                      ! Sky Clearness
  0,                                      ! Rain Indicator
  0,                                      ! Snow Indicator
  21,                                     ! Day of Month
  7,                                      ! Month
  SummerDesignDay,                        ! Day Type
  0,                                      ! Daylight Saving Time Indicator
  Wetbulb,                                ! Humidity Indicating Type
  ,                                       ! Humidity Indicating Day Schedule Name
  DefaultMultipliers,                     ! Dry-Bulb Temperature Range Modifier Type
  ,                                       ! Dry-Bulb Temperature Range Modifier Schedule Name
  ASHRAETau,                              ! Solar Model Indicator
  ,                                       ! Beam Solar Day Schedule Name
  ,                                       ! Diffuse Solar Day Schedule Name
  0.46,                                   ! ASHRAE Taub {dimensionless}
  2.098;                                  ! ASHRAE Taud {dimensionless}

OS:ComponentData,
  {71f2925d-4de0-4b36-9d83-0f114815c3f2}, ! Handle
  Component Data 1,                       ! Name
  {beccdf6d-9f45-46cc-b159-763890bff592}, ! UUID
  {6a6bbdb0-a8b2-4d70-bb21-09a2cd4406b8}, ! Version UUID
  1366310920,                             ! Creation Timestamp
  1366310920,                             ! Version Timestamp
  {8d60c4f9-43cd-4490-9b5b-2a8deaeaf332}; ! Name of Object 1

