
OS:Version,
  {7ff3fceb-e3ac-4d5b-8aa2-a55b493df3c0}, ! Handle
  0.9.3;                                  ! Version Identifier

OS:SizingPeriod:DesignDay,
  {f6781770-466e-4113-8b1b-b7fed93e28ed}, ! Handle
  San Angelo Mathis Field Ann Htg Wind 99% Condns WS=>MCDB, ! Name
  12.6,                                   ! Maximum Dry-Bulb Temperature {C}
  0,                                      ! Daily Dry-Bulb Temperature Range {deltaC}
  12.6,                                   ! Humidity Indicating Conditions at Maximum Dry-Bulb {BasedOnField A3}
  94503,                                  ! Barometric Pressure {Pa}
  11.7,                                   ! Wind Speed {m/s}
  40,                                     ! Wind Direction {deg}
  0,                                      ! Sky Clearness
  0,                                      ! Rain Indicator
  0,                                      ! Snow Indicator
  21,                                     ! Day of Month
  1,                                      ! Month
  WinterDesignDay,                        ! Day Type
  0,                                      ! Daylight Saving Time Indicator
  Wetbulb,                                ! Humidity Indicating Type
  ,                                       ! Humidity Indicating Day Schedule Name
  DefaultMultipliers,                     ! Dry-Bulb Temperature Range Modifier Type
  ,                                       ! Dry-Bulb Temperature Range Modifier Schedule Name
  ASHRAEClearSky;                         ! Solar Model Indicator

OS:ComponentData,
  {6fada49d-73a1-43b5-bfd9-a2d28951cd3c}, ! Handle
  Component Data 1,                       ! Name
  {17a8aac9-ea3b-4c7b-b61f-b64911dbb2dc}, ! UUID
  {f9f8445c-5633-4c9a-bf2a-af60cce18483}, ! Version UUID
  1366310872,                             ! Creation Timestamp
  1366310872,                             ! Version Timestamp
  {f6781770-466e-4113-8b1b-b7fed93e28ed}; ! Name of Object 1

