
OS:Version,
  {36b53cc6-40ab-4a9e-b1ab-d97afbbae12d}, ! Handle
  0.9.3;                                  ! Version Identifier

OS:SizingPeriod:DesignDay,
  {b967b182-b05e-4f60-b17d-90289d783fc5}, ! Handle
  Mason City Ann Clg 2% Condns DP=>MDB,   ! Name
  26.3,                                   ! Maximum Dry-Bulb Temperature {C}
  11.5,                                   ! Daily Dry-Bulb Temperature Range {deltaC}
  22,                                     ! Humidity Indicating Conditions at Maximum Dry-Bulb {BasedOnField A3}
  96958,                                  ! Barometric Pressure {Pa}
  6.4,                                    ! Wind Speed {m/s}
  200,                                    ! Wind Direction {deg}
  0,                                      ! Sky Clearness
  0,                                      ! Rain Indicator
  0,                                      ! Snow Indicator
  21,                                     ! Day of Month
  7,                                      ! Month
  SummerDesignDay,                        ! Day Type
  0,                                      ! Daylight Saving Time Indicator
  Dewpoint,                               ! Humidity Indicating Type
  ,                                       ! Humidity Indicating Day Schedule Name
  DefaultMultipliers,                     ! Dry-Bulb Temperature Range Modifier Type
  ,                                       ! Dry-Bulb Temperature Range Modifier Schedule Name
  ASHRAETau,                              ! Solar Model Indicator
  ,                                       ! Beam Solar Day Schedule Name
  ,                                       ! Diffuse Solar Day Schedule Name
  0.409,                                  ! ASHRAE Taub {dimensionless}
  2.21;                                   ! ASHRAE Taud {dimensionless}

OS:ComponentData,
  {2a6b4345-da16-4c31-8439-8aad623e8354}, ! Handle
  Component Data 1,                       ! Name
  {065ed1fc-91e6-4af6-88a4-4f93056def13}, ! UUID
  {6dbbd9c1-10cd-4cc8-9dfa-862fba7d08ec}, ! Version UUID
  1366307214,                             ! Creation Timestamp
  1366307214,                             ! Version Timestamp
  {b967b182-b05e-4f60-b17d-90289d783fc5}; ! Name of Object 1

