
OS:Version,
  {dc6bee85-f0fb-4349-b179-9f4c611d6689}, ! Handle
  0.9.3;                                  ! Version Identifier

OS:SizingPeriod:DesignDay,
  {6363ddd3-fc76-45b2-bdfa-0a29f6a5ff85}, ! Handle
  Visalia Muni  Awos Ann Htg 99% Condns DB, ! Name
  0.4,                                    ! Maximum Dry-Bulb Temperature {C}
  0,                                      ! Daily Dry-Bulb Temperature Range {deltaC}
  0.4,                                    ! Humidity Indicating Conditions at Maximum Dry-Bulb {BasedOnField A3}
  100260,                                 ! Barometric Pressure {Pa}
  0.9,                                    ! Wind Speed {m/s}
  110,                                    ! Wind Direction {deg}
  0,                                      ! Sky Clearness
  0,                                      ! Rain Indicator
  0,                                      ! Snow Indicator
  21,                                     ! Day of Month
  12,                                     ! Month
  WinterDesignDay,                        ! Day Type
  0,                                      ! Daylight Saving Time Indicator
  Wetbulb,                                ! Humidity Indicating Type
  ,                                       ! Humidity Indicating Day Schedule Name
  DefaultMultipliers,                     ! Dry-Bulb Temperature Range Modifier Type
  ,                                       ! Dry-Bulb Temperature Range Modifier Schedule Name
  ASHRAEClearSky;                         ! Solar Model Indicator

OS:ComponentData,
  {eaaaa6bc-8f25-4cf7-920c-14e03a6176dd}, ! Handle
  Component Data 1,                       ! Name
  {956994db-f9f6-478c-81d1-7fae93dac1f5}, ! UUID
  {f58a9fb0-a961-4001-bfea-a71f9cd4d2fd}, ! Version UUID
  1366306631,                             ! Creation Timestamp
  1366306631,                             ! Version Timestamp
  {6363ddd3-fc76-45b2-bdfa-0a29f6a5ff85}; ! Name of Object 1

