
OS:Version,
  {f3d0765c-7fe2-4671-876a-f5b7c292f27d}, ! Handle
  0.9.3;                                  ! Version Identifier

OS:SizingPeriod:DesignDay,
  {0452d29d-eea1-466a-b38f-f31993276e1f}, ! Handle
  Visalia Muni  Awos Ann Htg 99% Condns DB, ! Name
  0.4,                                    ! Maximum Dry-Bulb Temperature {C}
  0,                                      ! Daily Dry-Bulb Temperature Range {deltaC}
  0.4,                                    ! Humidity Indicating Conditions at Maximum Dry-Bulb {BasedOnField A3}
  100260,                                 ! Barometric Pressure {Pa}
  0.9,                                    ! Wind Speed {m/s}
  110,                                    ! Wind Direction {deg}
  0,                                      ! Sky Clearness
  0,                                      ! Rain Indicator
  0,                                      ! Snow Indicator
  21,                                     ! Day of Month
  12,                                     ! Month
  WinterDesignDay,                        ! Day Type
  0,                                      ! Daylight Saving Time Indicator
  Wetbulb,                                ! Humidity Indicating Type
  ,                                       ! Humidity Indicating Day Schedule Name
  DefaultMultipliers,                     ! Dry-Bulb Temperature Range Modifier Type
  ,                                       ! Dry-Bulb Temperature Range Modifier Schedule Name
  ASHRAEClearSky;                         ! Solar Model Indicator

