
OS:Version,
  {9bc5ddff-430f-4a6a-9a8a-ab943bcecfa0}, ! Handle
  0.9.3;                                  ! Version Identifier

OS:SizingPeriod:DesignDay,
  {13554dc7-c753-4105-b1a3-b0069b192b74}, ! Handle
  Warner Robins Afb Ann Hum_n 99% Condns DP=>MCDB, ! Name
  4.1,                                    ! Maximum Dry-Bulb Temperature {C}
  0,                                      ! Daily Dry-Bulb Temperature Range {deltaC}
  -10.3,                                  ! Humidity Indicating Conditions at Maximum Dry-Bulb {BasedOnField A3}
  100225,                                 ! Barometric Pressure {Pa}
  3,                                      ! Wind Speed {m/s}
  330,                                    ! Wind Direction {deg}
  0,                                      ! Sky Clearness
  0,                                      ! Rain Indicator
  0,                                      ! Snow Indicator
  21,                                     ! Day of Month
  1,                                      ! Month
  WinterDesignDay,                        ! Day Type
  0,                                      ! Daylight Saving Time Indicator
  Dewpoint,                               ! Humidity Indicating Type
  ,                                       ! Humidity Indicating Day Schedule Name
  DefaultMultipliers,                     ! Dry-Bulb Temperature Range Modifier Type
  ,                                       ! Dry-Bulb Temperature Range Modifier Schedule Name
  ASHRAEClearSky;                         ! Solar Model Indicator

OS:ComponentData,
  {d5edbc5c-9762-4c5b-8e7d-58930f8beb11}, ! Handle
  Component Data 1,                       ! Name
  {7c81d681-10e8-42fc-a4fd-4de134a359ed}, ! UUID
  {8df4f6aa-458a-43e1-9371-75de6e1bec85}, ! Version UUID
  1366307066,                             ! Creation Timestamp
  1366307066,                             ! Version Timestamp
  {13554dc7-c753-4105-b1a3-b0069b192b74}; ! Name of Object 1

