
OS:Version,
  {98f2e993-0017-4513-a111-e3fba98b53a2}, ! Handle
  0.9.3;                                  ! Version Identifier

OS:SizingPeriod:DesignDay,
  {d2fb1d2b-366f-4cae-8bdf-6234580c4508}, ! Handle
  Olathe Johnson Co Ann Hum_n 99% Condns DP=>MCDB, ! Name
  -10.7,                                  ! Maximum Dry-Bulb Temperature {C}
  0,                                      ! Daily Dry-Bulb Temperature Range {deltaC}
  -17.4,                                  ! Humidity Indicating Conditions at Maximum Dry-Bulb {BasedOnField A3}
  97376,                                  ! Barometric Pressure {Pa}
  3.7,                                    ! Wind Speed {m/s}
  320,                                    ! Wind Direction {deg}
  0,                                      ! Sky Clearness
  0,                                      ! Rain Indicator
  0,                                      ! Snow Indicator
  21,                                     ! Day of Month
  1,                                      ! Month
  WinterDesignDay,                        ! Day Type
  0,                                      ! Daylight Saving Time Indicator
  Dewpoint,                               ! Humidity Indicating Type
  ,                                       ! Humidity Indicating Day Schedule Name
  DefaultMultipliers,                     ! Dry-Bulb Temperature Range Modifier Type
  ,                                       ! Dry-Bulb Temperature Range Modifier Schedule Name
  ASHRAEClearSky;                         ! Solar Model Indicator

OS:ComponentData,
  {3328d789-b729-4096-b715-ce85344fb6ca}, ! Handle
  Component Data 1,                       ! Name
  {905a27d6-e3ca-4ba7-ac98-a25144a9e466}, ! UUID
  {ff522d4e-77c1-4980-84ce-60713a61c2bd}, ! Version UUID
  1366307566,                             ! Creation Timestamp
  1366307566,                             ! Version Timestamp
  {d2fb1d2b-366f-4cae-8bdf-6234580c4508}; ! Name of Object 1

