
OS:Version,
  {b7f28774-2278-43aa-9cbe-33d570c70951}, ! Handle
  0.9.3;                                  ! Version Identifier

OS:SizingPeriod:DesignDay,
  {f810329c-f602-4fc7-ab6e-e3a8e0a758aa}, ! Handle
  Morris Muni  Awos Ann Clg .4% Condns Enth=>MDB, ! Name
  30.1,                                   ! Maximum Dry-Bulb Temperature {C}
  11.1,                                   ! Daily Dry-Bulb Temperature Range {deltaC}
  81600,                                  ! Humidity Indicating Conditions at Maximum Dry-Bulb {BasedOnField A3}
  97260,                                  ! Barometric Pressure {Pa}
  5.9,                                    ! Wind Speed {m/s}
  160,                                    ! Wind Direction {deg}
  0,                                      ! Sky Clearness
  0,                                      ! Rain Indicator
  0,                                      ! Snow Indicator
  21,                                     ! Day of Month
  7,                                      ! Month
  SummerDesignDay,                        ! Day Type
  0,                                      ! Daylight Saving Time Indicator
  Enthalpy,                               ! Humidity Indicating Type
  ,                                       ! Humidity Indicating Day Schedule Name
  DefaultMultipliers,                     ! Dry-Bulb Temperature Range Modifier Type
  ,                                       ! Dry-Bulb Temperature Range Modifier Schedule Name
  ASHRAETau,                              ! Solar Model Indicator
  ,                                       ! Beam Solar Day Schedule Name
  ,                                       ! Diffuse Solar Day Schedule Name
  0.394,                                  ! ASHRAE Taub {dimensionless}
  2.261;                                  ! ASHRAE Taud {dimensionless}

OS:ComponentData,
  {31db4c90-759c-4fdd-a4c4-e58a5d84b41f}, ! Handle
  Component Data 1,                       ! Name
  {66211bbf-33df-4ca0-afff-0b2a0d5a07d4}, ! UUID
  {0046c413-74f1-46d1-898b-eccb7723d4de}, ! Version UUID
  1366308337,                             ! Creation Timestamp
  1366308337,                             ! Version Timestamp
  {f810329c-f602-4fc7-ab6e-e3a8e0a758aa}; ! Name of Object 1

