
OS:Version,
  {05523a7d-e124-4539-b921-2437dd7a2e52}, ! Handle
  0.9.3;                                  ! Version Identifier

OS:SizingPeriod:DesignDay,
  {e1e9207f-3541-4b60-a928-6d9f9e6ede3a}, ! Handle
  South St Paul Muni Ann Clg 1% Condns Enth=>MDB, ! Name
  28.6,                                   ! Maximum Dry-Bulb Temperature {C}
  10.1,                                   ! Daily Dry-Bulb Temperature Range {deltaC}
  73400,                                  ! Humidity Indicating Conditions at Maximum Dry-Bulb {BasedOnField A3}
  98358,                                  ! Barometric Pressure {Pa}
  3.3,                                    ! Wind Speed {m/s}
  180,                                    ! Wind Direction {deg}
  0,                                      ! Sky Clearness
  0,                                      ! Rain Indicator
  0,                                      ! Snow Indicator
  21,                                     ! Day of Month
  7,                                      ! Month
  SummerDesignDay,                        ! Day Type
  0,                                      ! Daylight Saving Time Indicator
  Enthalpy,                               ! Humidity Indicating Type
  ,                                       ! Humidity Indicating Day Schedule Name
  DefaultMultipliers,                     ! Dry-Bulb Temperature Range Modifier Type
  ,                                       ! Dry-Bulb Temperature Range Modifier Schedule Name
  ASHRAETau,                              ! Solar Model Indicator
  ,                                       ! Beam Solar Day Schedule Name
  ,                                       ! Diffuse Solar Day Schedule Name
  0.416,                                  ! ASHRAE Taub {dimensionless}
  2.183;                                  ! ASHRAE Taud {dimensionless}

OS:ComponentData,
  {96001d6f-8865-46d7-b3b1-cce2ad74a64b}, ! Handle
  Component Data 1,                       ! Name
  {96f2828e-43bb-4ae1-9b66-6bf4a8045c6f}, ! UUID
  {3ef47fbf-367a-44c9-99f5-997033c10909}, ! Version UUID
  1366308424,                             ! Creation Timestamp
  1366308424,                             ! Version Timestamp
  {e1e9207f-3541-4b60-a928-6d9f9e6ede3a}; ! Name of Object 1

