
OS:Version,
  {e9c6d834-aba2-4076-8139-0e511e56eaec}, ! Handle
  0.9.3;                                  ! Version Identifier

OS:SizingPeriod:DesignDay,
  {db23aa5d-e8db-461a-83f0-110b6273a48a}, ! Handle
  Montague Siskiyou County Ap Ann Htg Wind 99.6% Condns WS=>MCDB, ! Name
  8.2,                                    ! Maximum Dry-Bulb Temperature {C}
  0,                                      ! Daily Dry-Bulb Temperature Range {deltaC}
  8.2,                                    ! Humidity Indicating Conditions at Maximum Dry-Bulb {BasedOnField A3}
  92043,                                  ! Barometric Pressure {Pa}
  15.1,                                   ! Wind Speed {m/s}
  60,                                     ! Wind Direction {deg}
  0,                                      ! Sky Clearness
  0,                                      ! Rain Indicator
  0,                                      ! Snow Indicator
  21,                                     ! Day of Month
  12,                                     ! Month
  WinterDesignDay,                        ! Day Type
  0,                                      ! Daylight Saving Time Indicator
  Wetbulb,                                ! Humidity Indicating Type
  ,                                       ! Humidity Indicating Day Schedule Name
  DefaultMultipliers,                     ! Dry-Bulb Temperature Range Modifier Type
  ,                                       ! Dry-Bulb Temperature Range Modifier Schedule Name
  ASHRAEClearSky;                         ! Solar Model Indicator

OS:ComponentData,
  {634b70b4-a19a-4d67-8e91-40d3fc462120}, ! Handle
  Component Data 1,                       ! Name
  {f8d248fc-22e1-43f0-a22f-0cc07d7911dc}, ! UUID
  {4f1cc3d6-719b-4d05-89b5-107c58f5a356}, ! Version UUID
  1366306493,                             ! Creation Timestamp
  1366306493,                             ! Version Timestamp
  {db23aa5d-e8db-461a-83f0-110b6273a48a}; ! Name of Object 1

