
OS:Version,
  {c93a12cb-39c4-4614-8496-bbf1d427be96}, ! Handle
  0.9.3;                                  ! Version Identifier

OS:SizingPeriod:DesignDay,
  {f409191b-3ef7-4497-b198-72d45a56d379}, ! Handle
  POCATELLO Ann Clg 2% Condns Enth=>MDB,  ! Name
  28.3,                                   ! Maximum Dry-Bulb Temperature {C}
  18.7,                                   ! Daily Dry-Bulb Temperature Range {deltaC}
  51700,                                  ! Humidity Indicating Conditions at Maximum Dry-Bulb {BasedOnField A3}
  85966,                                  ! Barometric Pressure {Pa}
  4.8,                                    ! Wind Speed {m/s}
  240,                                    ! Wind Direction {deg}
  0,                                      ! Sky Clearness
  0,                                      ! Rain Indicator
  0,                                      ! Snow Indicator
  21,                                     ! Day of Month
  7,                                      ! Month
  SummerDesignDay,                        ! Day Type
  0,                                      ! Daylight Saving Time Indicator
  Enthalpy,                               ! Humidity Indicating Type
  ,                                       ! Humidity Indicating Day Schedule Name
  DefaultMultipliers,                     ! Dry-Bulb Temperature Range Modifier Type
  ,                                       ! Dry-Bulb Temperature Range Modifier Schedule Name
  ASHRAETau,                              ! Solar Model Indicator
  ,                                       ! Beam Solar Day Schedule Name
  ,                                       ! Diffuse Solar Day Schedule Name
  0.416,                                  ! ASHRAE Taub {dimensionless}
  2.003;                                  ! ASHRAE Taud {dimensionless}

