
OS:Version,
  {538a2c41-3a86-41ee-b418-d27afb939b9f}, ! Handle
  0.9.3;                                  ! Version Identifier

OS:SizingPeriod:DesignDay,
  {4d5114b2-97e5-4eba-aa56-c8c22941cf39}, ! Handle
  Memphis Ann Htg Wind 99.6% Condns WS=>MCDB, ! Name
  4.4,                                    ! Maximum Dry-Bulb Temperature {C}
  0,                                      ! Daily Dry-Bulb Temperature Range {deltaC}
  4.4,                                    ! Humidity Indicating Conditions at Maximum Dry-Bulb {BasedOnField A3}
  100284,                                 ! Barometric Pressure {Pa}
  10.9,                                   ! Wind Speed {m/s}
  0,                                      ! Wind Direction {deg}
  0,                                      ! Sky Clearness
  0,                                      ! Rain Indicator
  0,                                      ! Snow Indicator
  21,                                     ! Day of Month
  1,                                      ! Month
  WinterDesignDay,                        ! Day Type
  0,                                      ! Daylight Saving Time Indicator
  Wetbulb,                                ! Humidity Indicating Type
  ,                                       ! Humidity Indicating Day Schedule Name
  DefaultMultipliers,                     ! Dry-Bulb Temperature Range Modifier Type
  ,                                       ! Dry-Bulb Temperature Range Modifier Schedule Name
  ASHRAEClearSky;                         ! Solar Model Indicator

OS:ComponentData,
  {1d9426d0-39ec-4379-94b9-7f51ccc8c9dd}, ! Handle
  Component Data 1,                       ! Name
  {dbb361a9-5270-4f22-a4bc-24e7aafb3b1d}, ! UUID
  {6950aa58-6e89-4028-8726-b7c2d56427ac}, ! Version UUID
  1366310524,                             ! Creation Timestamp
  1366310524,                             ! Version Timestamp
  {4d5114b2-97e5-4eba-aa56-c8c22941cf39}; ! Name of Object 1

