
OS:Version,
  {9d2047b2-e6e6-4ff3-a0aa-b5facf24790e}, ! Handle
  0.9.3;                                  ! Version Identifier

OS:SizingPeriod:DesignDay,
  {cb77b22a-2a30-40ae-9992-5018363cdca3}, ! Handle
  Yuma Mcas Ann Hum_n 99% Condns DP=>MCDB, ! Name
  13.5,                                   ! Maximum Dry-Bulb Temperature {C}
  0,                                      ! Daily Dry-Bulb Temperature Range {deltaC}
  -12.3,                                  ! Humidity Indicating Conditions at Maximum Dry-Bulb {BasedOnField A3}
  100547,                                 ! Barometric Pressure {Pa}
  2,                                      ! Wind Speed {m/s}
  30,                                     ! Wind Direction {deg}
  0,                                      ! Sky Clearness
  0,                                      ! Rain Indicator
  0,                                      ! Snow Indicator
  21,                                     ! Day of Month
  12,                                     ! Month
  WinterDesignDay,                        ! Day Type
  0,                                      ! Daylight Saving Time Indicator
  Dewpoint,                               ! Humidity Indicating Type
  ,                                       ! Humidity Indicating Day Schedule Name
  DefaultMultipliers,                     ! Dry-Bulb Temperature Range Modifier Type
  ,                                       ! Dry-Bulb Temperature Range Modifier Schedule Name
  ASHRAEClearSky;                         ! Solar Model Indicator

OS:ComponentData,
  {1a7f0189-4c2c-4784-8946-072f4132b78b}, ! Handle
  Component Data 1,                       ! Name
  {c16c22bd-39d4-4053-a694-00656c8f2892}, ! UUID
  {96a00459-6e67-4ca5-84c1-3c6881616498}, ! Version UUID
  1366306341,                             ! Creation Timestamp
  1366306341,                             ! Version Timestamp
  {cb77b22a-2a30-40ae-9992-5018363cdca3}; ! Name of Object 1

