
OS:Version,
  {e767a23a-2121-4fa0-9f0d-c7af7920b8b7}, ! Handle
  0.9.3;                                  ! Version Identifier

OS:SizingPeriod:DesignDay,
  {a7ebad3f-b628-48f6-9064-64492877d12f}, ! Handle
  Norfolk Ann Clg 2% Condns DP=>MDB,      ! Name
  27.2,                                   ! Maximum Dry-Bulb Temperature {C}
  8.1,                                    ! Daily Dry-Bulb Temperature Range {deltaC}
  23.7,                                   ! Humidity Indicating Conditions at Maximum Dry-Bulb {BasedOnField A3}
  101217,                                 ! Barometric Pressure {Pa}
  5,                                      ! Wind Speed {m/s}
  240,                                    ! Wind Direction {deg}
  0,                                      ! Sky Clearness
  0,                                      ! Rain Indicator
  0,                                      ! Snow Indicator
  21,                                     ! Day of Month
  7,                                      ! Month
  SummerDesignDay,                        ! Day Type
  0,                                      ! Daylight Saving Time Indicator
  Dewpoint,                               ! Humidity Indicating Type
  ,                                       ! Humidity Indicating Day Schedule Name
  DefaultMultipliers,                     ! Dry-Bulb Temperature Range Modifier Type
  ,                                       ! Dry-Bulb Temperature Range Modifier Schedule Name
  ASHRAETau,                              ! Solar Model Indicator
  ,                                       ! Beam Solar Day Schedule Name
  ,                                       ! Diffuse Solar Day Schedule Name
  0.59,                                   ! ASHRAE Taub {dimensionless}
  1.703;                                  ! ASHRAE Taud {dimensionless}

OS:ComponentData,
  {67efaf64-e512-4f9c-a270-f149cb1cd98a}, ! Handle
  Component Data 1,                       ! Name
  {c6156183-eb00-4566-bf7c-70d21a734180}, ! UUID
  {ebf89141-025d-4400-8643-b018c3dd4f55}, ! Version UUID
  1366311130,                             ! Creation Timestamp
  1366311130,                             ! Version Timestamp
  {a7ebad3f-b628-48f6-9064-64492877d12f}; ! Name of Object 1

