
OS:Version,
  {46d9ed2a-3859-4f93-a8ef-c5ba847f9cd0}, ! Handle
  0.9.3;                                  ! Version Identifier

OS:SizingPeriod:DesignDay,
  {621735ca-5e8d-42ba-a5da-69d2c00669b8}, ! Handle
  Waterville  Awos Ann Clg 2% Condns WB=>MDB, ! Name
  24.8,                                   ! Maximum Dry-Bulb Temperature {C}
  10.6,                                   ! Daily Dry-Bulb Temperature Range {deltaC}
  20.5,                                   ! Humidity Indicating Conditions at Maximum Dry-Bulb {BasedOnField A3}
  100118,                                 ! Barometric Pressure {Pa}
  3.5,                                    ! Wind Speed {m/s}
  240,                                    ! Wind Direction {deg}
  0,                                      ! Sky Clearness
  0,                                      ! Rain Indicator
  0,                                      ! Snow Indicator
  21,                                     ! Day of Month
  7,                                      ! Month
  SummerDesignDay,                        ! Day Type
  0,                                      ! Daylight Saving Time Indicator
  Wetbulb,                                ! Humidity Indicating Type
  ,                                       ! Humidity Indicating Day Schedule Name
  DefaultMultipliers,                     ! Dry-Bulb Temperature Range Modifier Type
  ,                                       ! Dry-Bulb Temperature Range Modifier Schedule Name
  ASHRAETau,                              ! Solar Model Indicator
  ,                                       ! Beam Solar Day Schedule Name
  ,                                       ! Diffuse Solar Day Schedule Name
  0.457,                                  ! ASHRAE Taub {dimensionless}
  2.007;                                  ! ASHRAE Taud {dimensionless}

OS:ComponentData,
  {a83b69e6-7bec-40d6-97b5-4f2d311b6817}, ! Handle
  Component Data 1,                       ! Name
  {a012a747-1165-4cd8-8d24-ac1c3695f65f}, ! UUID
  {87442441-cc54-469f-a6de-94d4ef9fe86a}, ! Version UUID
  1366307931,                             ! Creation Timestamp
  1366307931,                             ! Version Timestamp
  {621735ca-5e8d-42ba-a5da-69d2c00669b8}; ! Name of Object 1

