
OS:Version,
  {74555d6a-3384-49ff-aa53-eee19d191e04}, ! Handle
  0.9.3;                                  ! Version Identifier

OS:SizingPeriod:DesignDay,
  {0f1b3dd9-1b17-4b54-a40e-f70ec2d90ede}, ! Handle
  Tupelo C D Lemons Arpt Ann Htg Wind 99% Condns WS=>MCDB, ! Name
  7.5,                                    ! Maximum Dry-Bulb Temperature {C}
  0,                                      ! Daily Dry-Bulb Temperature Range {deltaC}
  7.5,                                    ! Humidity Indicating Conditions at Maximum Dry-Bulb {BasedOnField A3}
  100011,                                 ! Barometric Pressure {Pa}
  8.8,                                    ! Wind Speed {m/s}
  0,                                      ! Wind Direction {deg}
  0,                                      ! Sky Clearness
  0,                                      ! Rain Indicator
  0,                                      ! Snow Indicator
  21,                                     ! Day of Month
  1,                                      ! Month
  WinterDesignDay,                        ! Day Type
  0,                                      ! Daylight Saving Time Indicator
  Wetbulb,                                ! Humidity Indicating Type
  ,                                       ! Humidity Indicating Day Schedule Name
  DefaultMultipliers,                     ! Dry-Bulb Temperature Range Modifier Type
  ,                                       ! Dry-Bulb Temperature Range Modifier Schedule Name
  ASHRAEClearSky;                         ! Solar Model Indicator

OS:ComponentData,
  {1c936165-4a3c-4ea1-8d60-1e1cb805869b}, ! Handle
  Component Data 1,                       ! Name
  {1e627115-5cdb-42fe-a32f-2e330b8e4aea}, ! UUID
  {cf6096cd-0c46-4348-bc05-5f39fad9e915}, ! Version UUID
  1366308690,                             ! Creation Timestamp
  1366308690,                             ! Version Timestamp
  {0f1b3dd9-1b17-4b54-a40e-f70ec2d90ede}; ! Name of Object 1

