
OS:Version,
  {8ab3a787-965b-4668-96b1-d567b0dc46ac}, ! Handle
  0.9.3;                                  ! Version Identifier

OS:SizingPeriod:DesignDay,
  {00a1a914-0c05-4926-b19b-8b5492c8cdd6}, ! Handle
  Poughkeepsie Dutchess Co Ap Ann Clg 2% Condns Enth=>MDB, ! Name
  27.9,                                   ! Maximum Dry-Bulb Temperature {C}
  12.4,                                   ! Daily Dry-Bulb Temperature Range {deltaC}
  68500,                                  ! Humidity Indicating Conditions at Maximum Dry-Bulb {BasedOnField A3}
  100762,                                 ! Barometric Pressure {Pa}
  3.9,                                    ! Wind Speed {m/s}
  240,                                    ! Wind Direction {deg}
  0,                                      ! Sky Clearness
  0,                                      ! Rain Indicator
  0,                                      ! Snow Indicator
  21,                                     ! Day of Month
  7,                                      ! Month
  SummerDesignDay,                        ! Day Type
  0,                                      ! Daylight Saving Time Indicator
  Enthalpy,                               ! Humidity Indicating Type
  ,                                       ! Humidity Indicating Day Schedule Name
  DefaultMultipliers,                     ! Dry-Bulb Temperature Range Modifier Type
  ,                                       ! Dry-Bulb Temperature Range Modifier Schedule Name
  ASHRAETau,                              ! Solar Model Indicator
  ,                                       ! Beam Solar Day Schedule Name
  ,                                       ! Diffuse Solar Day Schedule Name
  0.49,                                   ! ASHRAE Taub {dimensionless}
  1.93;                                   ! ASHRAE Taud {dimensionless}

OS:ComponentData,
  {825d947f-f617-4a58-b3ca-1b3f750626cd}, ! Handle
  Component Data 1,                       ! Name
  {f86f3ebe-93fa-4016-892b-f9bc23251d81}, ! UUID
  {b856aa7c-7211-458f-b66c-536cbd52a131}, ! Version UUID
  1366309706,                             ! Creation Timestamp
  1366309706,                             ! Version Timestamp
  {00a1a914-0c05-4926-b19b-8b5492c8cdd6}; ! Name of Object 1

