
OS:Version,
  {e5ec9019-98dc-4428-817b-740a0894d2e6}, ! Handle
  0.9.3;                                  ! Version Identifier

OS:SizingPeriod:DesignDay,
  {23220510-7dda-4af8-8f55-4ee3b5601081}, ! Handle
  Tucson Ann Hum_n 99% Condns DP=>MCDB,   ! Name
  14.4,                                   ! Maximum Dry-Bulb Temperature {C}
  0,                                      ! Daily Dry-Bulb Temperature Range {deltaC}
  -14.1,                                  ! Humidity Indicating Conditions at Maximum Dry-Bulb {BasedOnField A3}
  92310,                                  ! Barometric Pressure {Pa}
  2.5,                                    ! Wind Speed {m/s}
  140,                                    ! Wind Direction {deg}
  0,                                      ! Sky Clearness
  0,                                      ! Rain Indicator
  0,                                      ! Snow Indicator
  21,                                     ! Day of Month
  12,                                     ! Month
  WinterDesignDay,                        ! Day Type
  0,                                      ! Daylight Saving Time Indicator
  Dewpoint,                               ! Humidity Indicating Type
  ,                                       ! Humidity Indicating Day Schedule Name
  DefaultMultipliers,                     ! Dry-Bulb Temperature Range Modifier Type
  ,                                       ! Dry-Bulb Temperature Range Modifier Schedule Name
  ASHRAEClearSky;                         ! Solar Model Indicator

OS:ComponentData,
  {572dfa47-3d7c-46aa-82ee-b147fd41502a}, ! Handle
  Component Data 1,                       ! Name
  {013b7e0e-148e-48db-8468-7f4b95500108}, ! UUID
  {34b7249e-aaa9-4011-aa94-fb2d9e28b863}, ! Version UUID
  1366306321,                             ! Creation Timestamp
  1366306321,                             ! Version Timestamp
  {23220510-7dda-4af8-8f55-4ee3b5601081}; ! Name of Object 1

