
OS:Version,
  {f1f0da97-9b09-4dac-a3ea-37f7d4c5cf77}, ! Handle
  0.9.3;                                  ! Version Identifier

OS:SizingPeriod:DesignDay,
  {b5752d8e-9c86-4448-b954-df4e7817bed2}, ! Handle
  Middleton Island Aut Ann Clg .4% Condns WB=>MDB, ! Name
  17,                                     ! Maximum Dry-Bulb Temperature {C}
  3.4,                                    ! Daily Dry-Bulb Temperature Range {deltaC}
  14.3,                                   ! Humidity Indicating Conditions at Maximum Dry-Bulb {BasedOnField A3}
  101157,                                 ! Barometric Pressure {Pa}
  3.7,                                    ! Wind Speed {m/s}
  270,                                    ! Wind Direction {deg}
  0,                                      ! Sky Clearness
  0,                                      ! Rain Indicator
  0,                                      ! Snow Indicator
  21,                                     ! Day of Month
  8,                                      ! Month
  SummerDesignDay,                        ! Day Type
  0,                                      ! Daylight Saving Time Indicator
  Wetbulb,                                ! Humidity Indicating Type
  ,                                       ! Humidity Indicating Day Schedule Name
  DefaultMultipliers,                     ! Dry-Bulb Temperature Range Modifier Type
  ,                                       ! Dry-Bulb Temperature Range Modifier Schedule Name
  ASHRAETau,                              ! Solar Model Indicator
  ,                                       ! Beam Solar Day Schedule Name
  ,                                       ! Diffuse Solar Day Schedule Name
  0.366,                                  ! ASHRAE Taub {dimensionless}
  2.392;                                  ! ASHRAE Taud {dimensionless}

OS:ComponentData,
  {3d20b32d-c18d-4167-b4f8-538508cc192d}, ! Handle
  Component Data 1,                       ! Name
  {9ccc79d4-dcca-46fa-bc7b-17bbc35c0a2f}, ! UUID
  {11af56e4-7df0-4831-b61c-8e95e3e0c918}, ! Version UUID
  1366305429,                             ! Creation Timestamp
  1366305429,                             ! Version Timestamp
  {b5752d8e-9c86-4448-b954-df4e7817bed2}; ! Name of Object 1

