
OS:Version,
  {22bafad0-11dd-4a02-9fa8-c11ae11c529f}, ! Handle
  0.9.3;                                  ! Version Identifier

OS:SizingPeriod:DesignDay,
  {ca2f601e-11f4-49d3-a951-71b7c2470e8c}, ! Handle
  O Neill Baker Field Ann Clg .4% Condns DP=>MDB, ! Name
  27.6,                                   ! Maximum Dry-Bulb Temperature {C}
  12.3,                                   ! Daily Dry-Bulb Temperature Range {deltaC}
  22.2,                                   ! Humidity Indicating Conditions at Maximum Dry-Bulb {BasedOnField A3}
  94106,                                  ! Barometric Pressure {Pa}
  6.3,                                    ! Wind Speed {m/s}
  180,                                    ! Wind Direction {deg}
  0,                                      ! Sky Clearness
  0,                                      ! Rain Indicator
  0,                                      ! Snow Indicator
  21,                                     ! Day of Month
  7,                                      ! Month
  SummerDesignDay,                        ! Day Type
  0,                                      ! Daylight Saving Time Indicator
  Dewpoint,                               ! Humidity Indicating Type
  ,                                       ! Humidity Indicating Day Schedule Name
  DefaultMultipliers,                     ! Dry-Bulb Temperature Range Modifier Type
  ,                                       ! Dry-Bulb Temperature Range Modifier Schedule Name
  ASHRAETau,                              ! Solar Model Indicator
  ,                                       ! Beam Solar Day Schedule Name
  ,                                       ! Diffuse Solar Day Schedule Name
  0.398,                                  ! ASHRAE Taub {dimensionless}
  2.24;                                   ! ASHRAE Taud {dimensionless}

OS:ComponentData,
  {efd729a9-d81c-4088-9c14-6c3408789a61}, ! Handle
  Component Data 1,                       ! Name
  {88b71d2b-0725-48f1-b756-c7f2a63fd0ef}, ! UUID
  {f6245175-6606-4834-a4bc-64cc63e3fe54}, ! Version UUID
  1366309186,                             ! Creation Timestamp
  1366309186,                             ! Version Timestamp
  {ca2f601e-11f4-49d3-a951-71b7c2470e8c}; ! Name of Object 1

