
OS:Version,
  {29e34d0b-49d4-4c1e-8312-05ce7b228301}, ! Handle
  0.9.3;                                  ! Version Identifier

OS:SizingPeriod:DesignDay,
  {0e7f353d-c727-4ecc-b8df-b647110a84a0}, ! Handle
  Seward Ann Clg .4% Condns Enth=>MDB,    ! Name
  19.2,                                   ! Maximum Dry-Bulb Temperature {C}
  5.5,                                    ! Daily Dry-Bulb Temperature Range {deltaC}
  42400,                                  ! Humidity Indicating Conditions at Maximum Dry-Bulb {BasedOnField A3}
  101109,                                 ! Barometric Pressure {Pa}
  5.3,                                    ! Wind Speed {m/s}
  310,                                    ! Wind Direction {deg}
  0,                                      ! Sky Clearness
  0,                                      ! Rain Indicator
  0,                                      ! Snow Indicator
  21,                                     ! Day of Month
  7,                                      ! Month
  SummerDesignDay,                        ! Day Type
  0,                                      ! Daylight Saving Time Indicator
  Enthalpy,                               ! Humidity Indicating Type
  ,                                       ! Humidity Indicating Day Schedule Name
  DefaultMultipliers,                     ! Dry-Bulb Temperature Range Modifier Type
  ,                                       ! Dry-Bulb Temperature Range Modifier Schedule Name
  ASHRAETau,                              ! Solar Model Indicator
  ,                                       ! Beam Solar Day Schedule Name
  ,                                       ! Diffuse Solar Day Schedule Name
  0.399,                                  ! ASHRAE Taub {dimensionless}
  2.108;                                  ! ASHRAE Taud {dimensionless}

OS:ComponentData,
  {ef1759d9-d2b9-4aaf-ac67-835489e91a06}, ! Handle
  Component Data 1,                       ! Name
  {fb9ac060-a0a9-4336-af3a-ea2a3dfb6fef}, ! UUID
  {08185076-ace2-4c5e-86ea-4351a576a6ea}, ! Version UUID
  1366305540,                             ! Creation Timestamp
  1366305540,                             ! Version Timestamp
  {0e7f353d-c727-4ecc-b8df-b647110a84a0}; ! Name of Object 1

