
OS:Version,
  {e57b7898-4d20-4061-9998-5bb3a6e7b479}, ! Handle
  0.9.3;                                  ! Version Identifier

OS:SizingPeriod:DesignDay,
  {9a3b2619-5710-49dc-bf6e-db9e31d9ce8f}, ! Handle
  Pittsburgh Allegheny Co Ap Ann Clg .4% Condns Enth=>MDB, ! Name
  29.7,                                   ! Maximum Dry-Bulb Temperature {C}
  9.9,                                    ! Daily Dry-Bulb Temperature Range {deltaC}
  74000,                                  ! Humidity Indicating Conditions at Maximum Dry-Bulb {BasedOnField A3}
  96842,                                  ! Barometric Pressure {Pa}
  4.4,                                    ! Wind Speed {m/s}
  240,                                    ! Wind Direction {deg}
  0,                                      ! Sky Clearness
  0,                                      ! Rain Indicator
  0,                                      ! Snow Indicator
  21,                                     ! Day of Month
  7,                                      ! Month
  SummerDesignDay,                        ! Day Type
  0,                                      ! Daylight Saving Time Indicator
  Enthalpy,                               ! Humidity Indicating Type
  ,                                       ! Humidity Indicating Day Schedule Name
  DefaultMultipliers,                     ! Dry-Bulb Temperature Range Modifier Type
  ,                                       ! Dry-Bulb Temperature Range Modifier Schedule Name
  ASHRAETau,                              ! Solar Model Indicator
  ,                                       ! Beam Solar Day Schedule Name
  ,                                       ! Diffuse Solar Day Schedule Name
  0.484,                                  ! ASHRAE Taub {dimensionless}
  1.916;                                  ! ASHRAE Taud {dimensionless}

