
OS:Version,
  {d566b512-c8ac-41b2-8a9f-0be503d7ee9b}, ! Handle
  0.9.3;                                  ! Version Identifier

OS:SizingPeriod:DesignDay,
  {c65d88c8-0732-4fd8-be32-014f89b43278}, ! Handle
  Roseau Muni  Awos Ann Clg .4% Condns Enth=>MDB, ! Name
  28.2,                                   ! Maximum Dry-Bulb Temperature {C}
  11.5,                                   ! Daily Dry-Bulb Temperature Range {deltaC}
  75800,                                  ! Humidity Indicating Conditions at Maximum Dry-Bulb {BasedOnField A3}
  97504,                                  ! Barometric Pressure {Pa}
  5.1,                                    ! Wind Speed {m/s}
  200,                                    ! Wind Direction {deg}
  0,                                      ! Sky Clearness
  0,                                      ! Rain Indicator
  0,                                      ! Snow Indicator
  21,                                     ! Day of Month
  7,                                      ! Month
  SummerDesignDay,                        ! Day Type
  0,                                      ! Daylight Saving Time Indicator
  Enthalpy,                               ! Humidity Indicating Type
  ,                                       ! Humidity Indicating Day Schedule Name
  DefaultMultipliers,                     ! Dry-Bulb Temperature Range Modifier Type
  ,                                       ! Dry-Bulb Temperature Range Modifier Schedule Name
  ASHRAETau,                              ! Solar Model Indicator
  ,                                       ! Beam Solar Day Schedule Name
  ,                                       ! Diffuse Solar Day Schedule Name
  0.397,                                  ! ASHRAE Taub {dimensionless}
  2.252;                                  ! ASHRAE Taud {dimensionless}

OS:ComponentData,
  {ff9b8b6e-cdcc-4c8d-ae80-b7347a93927f}, ! Handle
  Component Data 1,                       ! Name
  {51818c75-15e7-47de-885a-26fd16b21e98}, ! UUID
  {1101d683-f89c-4bd0-934e-cc59b97c37eb}, ! Version UUID
  1366308406,                             ! Creation Timestamp
  1366308406,                             ! Version Timestamp
  {c65d88c8-0732-4fd8-be32-014f89b43278}; ! Name of Object 1

