
OS:Version,
  {8d065e6d-9564-41c4-acfe-a5d0dbfa7b08}, ! Handle
  0.9.3;                                  ! Version Identifier

OS:SizingPeriod:DesignDay,
  {efdaa9e9-8bea-4106-a9e9-300fd0127098}, ! Handle
  Winslow Municipal Ap Ann Clg .4% Condns DB=>MWB, ! Name
  36.3,                                   ! Maximum Dry-Bulb Temperature {C}
  16.2,                                   ! Daily Dry-Bulb Temperature Range {deltaC}
  16.2,                                   ! Humidity Indicating Conditions at Maximum Dry-Bulb {BasedOnField A3}
  84660,                                  ! Barometric Pressure {Pa}
  4.7,                                    ! Wind Speed {m/s}
  260,                                    ! Wind Direction {deg}
  0,                                      ! Sky Clearness
  0,                                      ! Rain Indicator
  0,                                      ! Snow Indicator
  21,                                     ! Day of Month
  7,                                      ! Month
  SummerDesignDay,                        ! Day Type
  0,                                      ! Daylight Saving Time Indicator
  Wetbulb,                                ! Humidity Indicating Type
  ,                                       ! Humidity Indicating Day Schedule Name
  DefaultMultipliers,                     ! Dry-Bulb Temperature Range Modifier Type
  ,                                       ! Dry-Bulb Temperature Range Modifier Schedule Name
  ASHRAETau,                              ! Solar Model Indicator
  ,                                       ! Beam Solar Day Schedule Name
  ,                                       ! Diffuse Solar Day Schedule Name
  0.444,                                  ! ASHRAE Taub {dimensionless}
  1.959;                                  ! ASHRAE Taud {dimensionless}

OS:ComponentData,
  {cbef9e09-f64c-4a0a-b7f7-133cb8d48534}, ! Handle
  Component Data 1,                       ! Name
  {e1a10929-d280-40ab-b25d-e37028070e86}, ! UUID
  {e17f36d8-e7fc-456e-ae21-0ea746a62d38}, ! Version UUID
  1366306331,                             ! Creation Timestamp
  1366306331,                             ! Version Timestamp
  {efdaa9e9-8bea-4106-a9e9-300fd0127098}; ! Name of Object 1

