
OS:Version,
  {d8b8c505-d1a8-49c6-9c3f-f98058468a31}, ! Handle
  0.9.3;                                  ! Version Identifier

OS:SizingPeriod:DesignDay,
  {28626b1c-567e-4117-a048-01ef552a64b5}, ! Handle
  Russell Municipal Ap Ann Clg .4% Condns Enth=>MDB, ! Name
  32.5,                                   ! Maximum Dry-Bulb Temperature {C}
  13.4,                                   ! Daily Dry-Bulb Temperature Range {deltaC}
  77900,                                  ! Humidity Indicating Conditions at Maximum Dry-Bulb {BasedOnField A3}
  94708,                                  ! Barometric Pressure {Pa}
  7.9,                                    ! Wind Speed {m/s}
  180,                                    ! Wind Direction {deg}
  0,                                      ! Sky Clearness
  0,                                      ! Rain Indicator
  0,                                      ! Snow Indicator
  21,                                     ! Day of Month
  7,                                      ! Month
  SummerDesignDay,                        ! Day Type
  0,                                      ! Daylight Saving Time Indicator
  Enthalpy,                               ! Humidity Indicating Type
  ,                                       ! Humidity Indicating Day Schedule Name
  DefaultMultipliers,                     ! Dry-Bulb Temperature Range Modifier Type
  ,                                       ! Dry-Bulb Temperature Range Modifier Schedule Name
  ASHRAETau,                              ! Solar Model Indicator
  ,                                       ! Beam Solar Day Schedule Name
  ,                                       ! Diffuse Solar Day Schedule Name
  0.427,                                  ! ASHRAE Taub {dimensionless}
  2.131;                                  ! ASHRAE Taud {dimensionless}

OS:ComponentData,
  {0b36c78c-4bf4-4083-85cd-c231dfb1fbe6}, ! Handle
  Component Data 1,                       ! Name
  {bb79b153-cd98-41d3-9fbe-4602a2f5e874}, ! UUID
  {f2749593-54db-40e5-9ab3-4c8d3cc76ec2}, ! Version UUID
  1366307573,                             ! Creation Timestamp
  1366307573,                             ! Version Timestamp
  {28626b1c-567e-4117-a048-01ef552a64b5}; ! Name of Object 1

