
OS:Version,
  {7e2e3813-0cd9-4df6-8fc4-469a86e0ba55}, ! Handle
  0.9.3;                                  ! Version Identifier

OS:SizingPeriod:DesignDay,
  {10ea4539-f6c9-4f20-8a41-c27250296c8f}, ! Handle
  Taos Muni Apt Awos Ann Clg 1% Condns Enth=>MDB, ! Name
  24.4,                                   ! Maximum Dry-Bulb Temperature {C}
  18.1,                                   ! Daily Dry-Bulb Temperature Range {deltaC}
  48600,                                  ! Humidity Indicating Conditions at Maximum Dry-Bulb {BasedOnField A3}
  77919,                                  ! Barometric Pressure {Pa}
  5.6,                                    ! Wind Speed {m/s}
  260,                                    ! Wind Direction {deg}
  0,                                      ! Sky Clearness
  0,                                      ! Rain Indicator
  0,                                      ! Snow Indicator
  21,                                     ! Day of Month
  7,                                      ! Month
  SummerDesignDay,                        ! Day Type
  0,                                      ! Daylight Saving Time Indicator
  Enthalpy,                               ! Humidity Indicating Type
  ,                                       ! Humidity Indicating Day Schedule Name
  DefaultMultipliers,                     ! Dry-Bulb Temperature Range Modifier Type
  ,                                       ! Dry-Bulb Temperature Range Modifier Schedule Name
  ASHRAETau,                              ! Solar Model Indicator
  ,                                       ! Beam Solar Day Schedule Name
  ,                                       ! Diffuse Solar Day Schedule Name
  0.399,                                  ! ASHRAE Taub {dimensionless}
  2.126;                                  ! ASHRAE Taud {dimensionless}

OS:ComponentData,
  {9b9d4152-a765-4e08-a494-d4cb91b4b273}, ! Handle
  Component Data 1,                       ! Name
  {35b2d5d2-2508-40e9-9673-a39c52605aa1}, ! UUID
  {7f0cdf05-928d-4d8d-aa1d-b4d718626136}, ! Version UUID
  1366309440,                             ! Creation Timestamp
  1366309440,                             ! Version Timestamp
  {10ea4539-f6c9-4f20-8a41-c27250296c8f}; ! Name of Object 1

