
OS:Version,
  {9eb0f28d-85ed-4b1b-b65f-05d4753c2f17}, ! Handle
  0.9.3;                                  ! Version Identifier

OS:SizingPeriod:DesignDay,
  {0ff7865c-a2e2-4059-ab29-7189734ceba9}, ! Handle
  RENO Ann Clg 1% Condns DB=>MWB,         ! Name
  33.9,                                   ! Maximum Dry-Bulb Temperature {C}
  18.8,                                   ! Daily Dry-Bulb Temperature Range {deltaC}
  15.9,                                   ! Humidity Indicating Conditions at Maximum Dry-Bulb {BasedOnField A3}
  86219,                                  ! Barometric Pressure {Pa}
  4.5,                                    ! Wind Speed {m/s}
  270,                                    ! Wind Direction {deg}
  0,                                      ! Sky Clearness
  0,                                      ! Rain Indicator
  0,                                      ! Snow Indicator
  21,                                     ! Day of Month
  7,                                      ! Month
  SummerDesignDay,                        ! Day Type
  0,                                      ! Daylight Saving Time Indicator
  Wetbulb,                                ! Humidity Indicating Type
  ,                                       ! Humidity Indicating Day Schedule Name
  DefaultMultipliers,                     ! Dry-Bulb Temperature Range Modifier Type
  ,                                       ! Dry-Bulb Temperature Range Modifier Schedule Name
  ASHRAETau,                              ! Solar Model Indicator
  ,                                       ! Beam Solar Day Schedule Name
  ,                                       ! Diffuse Solar Day Schedule Name
  0.398,                                  ! ASHRAE Taub {dimensionless}
  2.123;                                  ! ASHRAE Taud {dimensionless}

OS:ComponentData,
  {d9b6d6e6-52fd-46d3-a011-148b23a5b4d9}, ! Handle
  Component Data 1,                       ! Name
  {072a405e-06df-492f-86eb-0f1802b5194c}, ! UUID
  {7311b2c2-f1f9-4b76-a437-39864f4fb5d8}, ! Version UUID
  1366309541,                             ! Creation Timestamp
  1366309541,                             ! Version Timestamp
  {0ff7865c-a2e2-4059-ab29-7189734ceba9}; ! Name of Object 1

