
OS:Version,
  {2159591f-3348-4c4b-88a6-f35655798151}, ! Handle
  0.9.3;                                  ! Version Identifier

OS:SizingPeriod:DesignDay,
  {d7434115-c553-4644-a284-28d85b4bb735}, ! Handle
  PITTSBURGH Ann Clg 2% Condns WB=>MDB,   ! Name
  27,                                     ! Maximum Dry-Bulb Temperature {C}
  10.3,                                   ! Daily Dry-Bulb Temperature Range {deltaC}
  22.4,                                   ! Humidity Indicating Conditions at Maximum Dry-Bulb {BasedOnField A3}
  96924,                                  ! Barometric Pressure {Pa}
  4.5,                                    ! Wind Speed {m/s}
  220,                                    ! Wind Direction {deg}
  0,                                      ! Sky Clearness
  0,                                      ! Rain Indicator
  0,                                      ! Snow Indicator
  21,                                     ! Day of Month
  7,                                      ! Month
  SummerDesignDay,                        ! Day Type
  0,                                      ! Daylight Saving Time Indicator
  Wetbulb,                                ! Humidity Indicating Type
  ,                                       ! Humidity Indicating Day Schedule Name
  DefaultMultipliers,                     ! Dry-Bulb Temperature Range Modifier Type
  ,                                       ! Dry-Bulb Temperature Range Modifier Schedule Name
  ASHRAETau,                              ! Solar Model Indicator
  ,                                       ! Beam Solar Day Schedule Name
  ,                                       ! Diffuse Solar Day Schedule Name
  0.479,                                  ! ASHRAE Taub {dimensionless}
  1.937;                                  ! ASHRAE Taud {dimensionless}

OS:ComponentData,
  {238d0d9d-8963-4895-bc3b-f4939e044203}, ! Handle
  Component Data 1,                       ! Name
  {db983b25-4dbd-4e73-a04a-19ba50ddfc24}, ! UUID
  {a049bd5f-f3a4-4e11-9f68-3492c5f6160f}, ! Version UUID
  1366310237,                             ! Creation Timestamp
  1366310237,                             ! Version Timestamp
  {d7434115-c553-4644-a284-28d85b4bb735}; ! Name of Object 1

