
OS:Version,
  {1fbfea18-98b2-4322-bf09-3ad60eab5ef6}, ! Handle
  0.9.3;                                  ! Version Identifier

OS:SizingPeriod:DesignDay,
  {5d110c2e-e7df-47bd-90c0-83885bfd6b3a}, ! Handle
  NEW_ORLEANS Ann Clg 2% Condns DB=>MWB,  ! Name
  32.6,                                   ! Maximum Dry-Bulb Temperature {C}
  6.6,                                    ! Daily Dry-Bulb Temperature Range {deltaC}
  25.5,                                   ! Humidity Indicating Conditions at Maximum Dry-Bulb {BasedOnField A3}
  101289,                                 ! Barometric Pressure {Pa}
  3.8,                                    ! Wind Speed {m/s}
  320,                                    ! Wind Direction {deg}
  0,                                      ! Sky Clearness
  0,                                      ! Rain Indicator
  0,                                      ! Snow Indicator
  21,                                     ! Day of Month
  8,                                      ! Month
  SummerDesignDay,                        ! Day Type
  0,                                      ! Daylight Saving Time Indicator
  Wetbulb,                                ! Humidity Indicating Type
  ,                                       ! Humidity Indicating Day Schedule Name
  DefaultMultipliers,                     ! Dry-Bulb Temperature Range Modifier Type
  ,                                       ! Dry-Bulb Temperature Range Modifier Schedule Name
  ASHRAETau,                              ! Solar Model Indicator
  ,                                       ! Beam Solar Day Schedule Name
  ,                                       ! Diffuse Solar Day Schedule Name
  0.551,                                  ! ASHRAE Taub {dimensionless}
  1.829;                                  ! ASHRAE Taud {dimensionless}

OS:ComponentData,
  {72ae8f8d-9860-4662-96ab-2f84d36572b5}, ! Handle
  Component Data 1,                       ! Name
  {881a70e1-cab7-4227-a744-84103ad24446}, ! UUID
  {ce038c9e-2e1d-40f0-bbc3-8126b0d11c53}, ! Version UUID
  1366307747,                             ! Creation Timestamp
  1366307747,                             ! Version Timestamp
  {5d110c2e-e7df-47bd-90c0-83885bfd6b3a}; ! Name of Object 1

