
OS:Version,
  {1228f745-dd0a-4d9b-a264-fee373e49a11}, ! Handle
  0.9.3;                                  ! Version Identifier

OS:SizingPeriod:DesignDay,
  {e33db2fa-fe0c-4a14-99e7-fed9350ce040}, ! Handle
  Traverse City Cherry Capital Ann Clg 1% Condns Enth=>MDB, ! Name
  27.7,                                   ! Maximum Dry-Bulb Temperature {C}
  11.8,                                   ! Daily Dry-Bulb Temperature Range {deltaC}
  67700,                                  ! Humidity Indicating Conditions at Maximum Dry-Bulb {BasedOnField A3}
  99087,                                  ! Barometric Pressure {Pa}
  5.1,                                    ! Wind Speed {m/s}
  230,                                    ! Wind Direction {deg}
  0,                                      ! Sky Clearness
  0,                                      ! Rain Indicator
  0,                                      ! Snow Indicator
  21,                                     ! Day of Month
  7,                                      ! Month
  SummerDesignDay,                        ! Day Type
  0,                                      ! Daylight Saving Time Indicator
  Enthalpy,                               ! Humidity Indicating Type
  ,                                       ! Humidity Indicating Day Schedule Name
  DefaultMultipliers,                     ! Dry-Bulb Temperature Range Modifier Type
  ,                                       ! Dry-Bulb Temperature Range Modifier Schedule Name
  ASHRAETau,                              ! Solar Model Indicator
  ,                                       ! Beam Solar Day Schedule Name
  ,                                       ! Diffuse Solar Day Schedule Name
  0.422,                                  ! ASHRAE Taub {dimensionless}
  2.177;                                  ! ASHRAE Taud {dimensionless}

OS:ComponentData,
  {a5fc78d1-2740-44c6-9459-92993be99bca}, ! Handle
  Component Data 1,                       ! Name
  {9c87496a-2af7-4c42-b3ea-49930f86235f}, ! UUID
  {6d8f8403-9727-45c1-a385-a0b876a5751f}, ! Version UUID
  1366308126,                             ! Creation Timestamp
  1366308126,                             ! Version Timestamp
  {e33db2fa-fe0c-4a14-99e7-fed9350ce040}; ! Name of Object 1

