
OS:Version,
  {5864ee50-5b99-4a0a-992b-ddeb38e7476a}, ! Handle
  0.9.3;                                  ! Version Identifier

OS:SizingPeriod:DesignDay,
  {5d395934-70ae-4957-beae-b99e2575b505}, ! Handle
  Mcallen Miller Intl Ap  Edinb Ann Clg .4% Condns Enth=>MDB, ! Name
  32.4,                                   ! Maximum Dry-Bulb Temperature {C}
  11.1,                                   ! Daily Dry-Bulb Temperature Range {deltaC}
  84500,                                  ! Humidity Indicating Conditions at Maximum Dry-Bulb {BasedOnField A3}
  100965,                                 ! Barometric Pressure {Pa}
  6.6,                                    ! Wind Speed {m/s}
  140,                                    ! Wind Direction {deg}
  0,                                      ! Sky Clearness
  0,                                      ! Rain Indicator
  0,                                      ! Snow Indicator
  21,                                     ! Day of Month
  8,                                      ! Month
  SummerDesignDay,                        ! Day Type
  0,                                      ! Daylight Saving Time Indicator
  Enthalpy,                               ! Humidity Indicating Type
  ,                                       ! Humidity Indicating Day Schedule Name
  DefaultMultipliers,                     ! Dry-Bulb Temperature Range Modifier Type
  ,                                       ! Dry-Bulb Temperature Range Modifier Schedule Name
  ASHRAETau,                              ! Solar Model Indicator
  ,                                       ! Beam Solar Day Schedule Name
  ,                                       ! Diffuse Solar Day Schedule Name
  0.461,                                  ! ASHRAE Taub {dimensionless}
  2.107;                                  ! ASHRAE Taud {dimensionless}

OS:ComponentData,
  {f09bab17-534f-4fe5-983a-51e8c99a33ea}, ! Handle
  Component Data 1,                       ! Name
  {22b29cf8-9abd-45e9-9e5c-d513477a42eb}, ! UUID
  {f7be4d56-4d27-4e48-b215-0ba8043d2183}, ! Version UUID
  1366310820,                             ! Creation Timestamp
  1366310820,                             ! Version Timestamp
  {5d395934-70ae-4957-beae-b99e2575b505}; ! Name of Object 1

