
OS:Version,
  {ae77588a-7a8f-4a78-9325-39b1732a3cc5}, ! Handle
  0.9.3;                                  ! Version Identifier

OS:SizingPeriod:DesignDay,
  {93a2e45e-1cf8-496f-a287-73be44654806}, ! Handle
  Miami/Int'l Airport Ann Hum_n 99.6% Condns DP=>MCDB, ! Name
  12.4,                                   ! Maximum Dry-Bulb Temperature {C}
  0,                                      ! Daily Dry-Bulb Temperature Range {deltaC}
  -0.1,                                   ! Humidity Indicating Conditions at Maximum Dry-Bulb {BasedOnField A3}
  101277,                                 ! Barometric Pressure {Pa}
  3.8,                                    ! Wind Speed {m/s}
  340,                                    ! Wind Direction {deg}
  0,                                      ! Sky Clearness
  0,                                      ! Rain Indicator
  0,                                      ! Snow Indicator
  21,                                     ! Day of Month
  1,                                      ! Month
  WinterDesignDay,                        ! Day Type
  0,                                      ! Daylight Saving Time Indicator
  Dewpoint,                               ! Humidity Indicating Type
  ,                                       ! Humidity Indicating Day Schedule Name
  DefaultMultipliers,                     ! Dry-Bulb Temperature Range Modifier Type
  ,                                       ! Dry-Bulb Temperature Range Modifier Schedule Name
  ASHRAEClearSky;                         ! Solar Model Indicator

OS:ComponentData,
  {77c73ac0-9b10-4862-a8ea-4664c96f8e52}, ! Handle
  Component Data 1,                       ! Name
  {a728a0d2-647f-46be-ac72-1755b64972ac}, ! UUID
  {b1530c7c-9366-4892-9215-d22b7813a6cb}, ! Version UUID
  1366306863,                             ! Creation Timestamp
  1366306863,                             ! Version Timestamp
  {93a2e45e-1cf8-496f-a287-73be44654806}; ! Name of Object 1

