
OS:Version,
  {6f58095b-c6bc-417a-9441-47ce053b4d6f}, ! Handle
  0.9.3;                                  ! Version Identifier

OS:SizingPeriod:DesignDay,
  {b1b74414-78ef-4895-ab91-d86a6689fc41}, ! Handle
  Valparaiso Elgin Afb Ann Clg 2% Condns DB=>MWB, ! Name
  32.1,                                   ! Maximum Dry-Bulb Temperature {C}
  8,                                      ! Daily Dry-Bulb Temperature Range {deltaC}
  24.8,                                   ! Humidity Indicating Conditions at Maximum Dry-Bulb {BasedOnField A3}
  101085,                                 ! Barometric Pressure {Pa}
  4.1,                                    ! Wind Speed {m/s}
  210,                                    ! Wind Direction {deg}
  0,                                      ! Sky Clearness
  0,                                      ! Rain Indicator
  0,                                      ! Snow Indicator
  21,                                     ! Day of Month
  7,                                      ! Month
  SummerDesignDay,                        ! Day Type
  0,                                      ! Daylight Saving Time Indicator
  Wetbulb,                                ! Humidity Indicating Type
  ,                                       ! Humidity Indicating Day Schedule Name
  DefaultMultipliers,                     ! Dry-Bulb Temperature Range Modifier Type
  ,                                       ! Dry-Bulb Temperature Range Modifier Schedule Name
  ASHRAETau,                              ! Solar Model Indicator
  ,                                       ! Beam Solar Day Schedule Name
  ,                                       ! Diffuse Solar Day Schedule Name
  0.527,                                  ! ASHRAE Taub {dimensionless}
  1.901;                                  ! ASHRAE Taud {dimensionless}

OS:ComponentData,
  {ab2af5d9-8913-4cc3-bff9-999c1ad09f25}, ! Handle
  Component Data 1,                       ! Name
  {0cbf02b4-43b9-4b41-80c9-3a4efd432bb5}, ! UUID
  {202b1113-5667-4d7b-b1b2-e375d110b9ea}, ! Version UUID
  1366306942,                             ! Creation Timestamp
  1366306942,                             ! Version Timestamp
  {b1b74414-78ef-4895-ab91-d86a6689fc41}; ! Name of Object 1

