
OS:Version,
  {f81c2f3f-d642-4181-9c7c-c4c9b8b268bd}, ! Handle
  0.9.3;                                  ! Version Identifier

OS:SizingPeriod:DesignDay,
  {6917170e-5dd1-49d1-bf05-f9a2fe9114f3}, ! Handle
  Wendover Usaf Auxiliary Field Ann Clg 1% Condns DB=>MWB, ! Name
  34.1,                                   ! Maximum Dry-Bulb Temperature {C}
  12.6,                                   ! Daily Dry-Bulb Temperature Range {deltaC}
  15.4,                                   ! Humidity Indicating Conditions at Maximum Dry-Bulb {BasedOnField A3}
  86747,                                  ! Barometric Pressure {Pa}
  5.1,                                    ! Wind Speed {m/s}
  120,                                    ! Wind Direction {deg}
  0,                                      ! Sky Clearness
  0,                                      ! Rain Indicator
  0,                                      ! Snow Indicator
  21,                                     ! Day of Month
  7,                                      ! Month
  SummerDesignDay,                        ! Day Type
  0,                                      ! Daylight Saving Time Indicator
  Wetbulb,                                ! Humidity Indicating Type
  ,                                       ! Humidity Indicating Day Schedule Name
  DefaultMultipliers,                     ! Dry-Bulb Temperature Range Modifier Type
  ,                                       ! Dry-Bulb Temperature Range Modifier Schedule Name
  ASHRAETau,                              ! Solar Model Indicator
  ,                                       ! Beam Solar Day Schedule Name
  ,                                       ! Diffuse Solar Day Schedule Name
  0.474,                                  ! ASHRAE Taub {dimensionless}
  1.796;                                  ! ASHRAE Taud {dimensionless}

OS:ComponentData,
  {09837dd8-8062-424f-a16e-47bd775571b3}, ! Handle
  Component Data 1,                       ! Name
  {1dfa2853-c630-40b2-aced-d4c123aa3719}, ! UUID
  {1312481e-92a2-4108-8301-48f0ab09908a}, ! Version UUID
  1366311008,                             ! Creation Timestamp
  1366311008,                             ! Version Timestamp
  {6917170e-5dd1-49d1-bf05-f9a2fe9114f3}; ! Name of Object 1

