
OS:Version,
  {a1a55d98-6cf3-43b0-be3e-0deb3d28f78b}, ! Handle
  0.9.3;                                  ! Version Identifier

OS:SizingPeriod:DesignDay,
  {eec46e20-041c-45b9-b0b3-a1d8dab3cc84}, ! Handle
  Valparaiso Elgin Afb Ann Clg 2% Condns WB=>MDB, ! Name
  29.8,                                   ! Maximum Dry-Bulb Temperature {C}
  8,                                      ! Daily Dry-Bulb Temperature Range {deltaC}
  26,                                     ! Humidity Indicating Conditions at Maximum Dry-Bulb {BasedOnField A3}
  101085,                                 ! Barometric Pressure {Pa}
  4.1,                                    ! Wind Speed {m/s}
  210,                                    ! Wind Direction {deg}
  0,                                      ! Sky Clearness
  0,                                      ! Rain Indicator
  0,                                      ! Snow Indicator
  21,                                     ! Day of Month
  7,                                      ! Month
  SummerDesignDay,                        ! Day Type
  0,                                      ! Daylight Saving Time Indicator
  Wetbulb,                                ! Humidity Indicating Type
  ,                                       ! Humidity Indicating Day Schedule Name
  DefaultMultipliers,                     ! Dry-Bulb Temperature Range Modifier Type
  ,                                       ! Dry-Bulb Temperature Range Modifier Schedule Name
  ASHRAETau,                              ! Solar Model Indicator
  ,                                       ! Beam Solar Day Schedule Name
  ,                                       ! Diffuse Solar Day Schedule Name
  0.527,                                  ! ASHRAE Taub {dimensionless}
  1.901;                                  ! ASHRAE Taud {dimensionless}

