
OS:Version,
  {a7561448-a18b-4593-8d33-bf767cb09a39}, ! Handle
  0.9.3;                                  ! Version Identifier

OS:SizingPeriod:DesignDay,
  {7c00f4a5-d5ec-4f94-b942-a27f9d7c2a37}, ! Handle
  New York Laguardia Arpt Ann Clg .4% Condns DP=>MDB, ! Name
  27.2,                                   ! Maximum Dry-Bulb Temperature {C}
  7.7,                                    ! Daily Dry-Bulb Temperature Range {deltaC}
  23.5,                                   ! Humidity Indicating Conditions at Maximum Dry-Bulb {BasedOnField A3}
  101289,                                 ! Barometric Pressure {Pa}
  5.6,                                    ! Wind Speed {m/s}
  270,                                    ! Wind Direction {deg}
  0,                                      ! Sky Clearness
  0,                                      ! Rain Indicator
  0,                                      ! Snow Indicator
  21,                                     ! Day of Month
  7,                                      ! Month
  SummerDesignDay,                        ! Day Type
  0,                                      ! Daylight Saving Time Indicator
  Dewpoint,                               ! Humidity Indicating Type
  ,                                       ! Humidity Indicating Day Schedule Name
  DefaultMultipliers,                     ! Dry-Bulb Temperature Range Modifier Type
  ,                                       ! Dry-Bulb Temperature Range Modifier Schedule Name
  ASHRAETau,                              ! Solar Model Indicator
  ,                                       ! Beam Solar Day Schedule Name
  ,                                       ! Diffuse Solar Day Schedule Name
  0.532,                                  ! ASHRAE Taub {dimensionless}
  1.821;                                  ! ASHRAE Taud {dimensionless}

OS:ComponentData,
  {92566402-3618-430c-9cf9-b67358f9c3e0}, ! Handle
  Component Data 1,                       ! Name
  {37c2a9f5-d0e4-40cf-ad63-c3a5e0aad8cb}, ! UUID
  {9d8c1d9d-57eb-4f49-a376-4d8feff9e609}, ! Version UUID
  1366309675,                             ! Creation Timestamp
  1366309675,                             ! Version Timestamp
  {7c00f4a5-d5ec-4f94-b942-a27f9d7c2a37}; ! Name of Object 1

