
OS:Version,
  {2b671d4b-c8da-49c9-8879-50569eb4f930}, ! Handle
  0.9.3;                                  ! Version Identifier

OS:SizingPeriod:DesignDay,
  {18f89504-ae27-4d55-a3e0-beb81ed5ae3b}, ! Handle
  Valdosta Wb Airport Ann Htg 99.6% Condns DB, ! Name
  -2.5,                                   ! Maximum Dry-Bulb Temperature {C}
  0,                                      ! Daily Dry-Bulb Temperature Range {deltaC}
  -2.5,                                   ! Humidity Indicating Conditions at Maximum Dry-Bulb {BasedOnField A3}
  100594,                                 ! Barometric Pressure {Pa}
  1.6,                                    ! Wind Speed {m/s}
  340,                                    ! Wind Direction {deg}
  0,                                      ! Sky Clearness
  0,                                      ! Rain Indicator
  0,                                      ! Snow Indicator
  21,                                     ! Day of Month
  1,                                      ! Month
  WinterDesignDay,                        ! Day Type
  0,                                      ! Daylight Saving Time Indicator
  Wetbulb,                                ! Humidity Indicating Type
  ,                                       ! Humidity Indicating Day Schedule Name
  DefaultMultipliers,                     ! Dry-Bulb Temperature Range Modifier Type
  ,                                       ! Dry-Bulb Temperature Range Modifier Schedule Name
  ASHRAEClearSky;                         ! Solar Model Indicator

OS:ComponentData,
  {788232bc-1209-4401-b49f-118f7664bf41}, ! Handle
  Component Data 1,                       ! Name
  {5da0beac-87dd-4879-ab85-0ce42175eee9}, ! UUID
  {fba0059d-1d71-4039-a2d4-2c9ed6a8c917}, ! Version UUID
  1366307062,                             ! Creation Timestamp
  1366307062,                             ! Version Timestamp
  {18f89504-ae27-4d55-a3e0-beb81ed5ae3b}; ! Name of Object 1

