
OS:Version,
  {295baf2f-5201-4b64-8b08-de48e8635852}, ! Handle
  0.9.3;                                  ! Version Identifier

OS:SizingPeriod:DesignDay,
  {45606e30-066d-42bc-acd2-af04fe1962e4}, ! Handle
  Wise Lonesome Pine Ann Clg .4% Condns WB=>MDB, ! Name
  26.9,                                   ! Maximum Dry-Bulb Temperature {C}
  9.5,                                    ! Daily Dry-Bulb Temperature Range {deltaC}
  23,                                     ! Humidity Indicating Conditions at Maximum Dry-Bulb {BasedOnField A3}
  91888,                                  ! Barometric Pressure {Pa}
  2.5,                                    ! Wind Speed {m/s}
  170,                                    ! Wind Direction {deg}
  0,                                      ! Sky Clearness
  0,                                      ! Rain Indicator
  0,                                      ! Snow Indicator
  21,                                     ! Day of Month
  7,                                      ! Month
  SummerDesignDay,                        ! Day Type
  0,                                      ! Daylight Saving Time Indicator
  Wetbulb,                                ! Humidity Indicating Type
  ,                                       ! Humidity Indicating Day Schedule Name
  DefaultMultipliers,                     ! Dry-Bulb Temperature Range Modifier Type
  ,                                       ! Dry-Bulb Temperature Range Modifier Schedule Name
  ASHRAETau,                              ! Solar Model Indicator
  ,                                       ! Beam Solar Day Schedule Name
  ,                                       ! Diffuse Solar Day Schedule Name
  0.485,                                  ! ASHRAE Taub {dimensionless}
  1.901;                                  ! ASHRAE Taud {dimensionless}

OS:ComponentData,
  {62379989-6687-4a0b-83fa-8a55b896dd79}, ! Handle
  Component Data 1,                       ! Name
  {f16fab59-dd9e-4ffa-8431-5f03dca36672}, ! UUID
  {aa97166e-f111-4962-8b74-b47083a0fe60}, ! Version UUID
  1366311230,                             ! Creation Timestamp
  1366311230,                             ! Version Timestamp
  {45606e30-066d-42bc-acd2-af04fe1962e4}; ! Name of Object 1

