
OS:Version,
  {a456be88-ce90-4b52-9b3d-25e6a2e14d74}, ! Handle
  0.9.3;                                  ! Version Identifier

OS:SizingPeriod:DesignDay,
  {1657b63c-0caf-4043-82d0-fa18e1458581}, ! Handle
  Valdez Wso Ann Htg Wind 99.6% Condns WS=>MCDB, ! Name
  -9.1,                                   ! Maximum Dry-Bulb Temperature {C}
  0,                                      ! Daily Dry-Bulb Temperature Range {deltaC}
  -9.1,                                   ! Humidity Indicating Conditions at Maximum Dry-Bulb {BasedOnField A3}
  101241,                                 ! Barometric Pressure {Pa}
  14.7,                                   ! Wind Speed {m/s}
  60,                                     ! Wind Direction {deg}
  0,                                      ! Sky Clearness
  0,                                      ! Rain Indicator
  0,                                      ! Snow Indicator
  21,                                     ! Day of Month
  1,                                      ! Month
  WinterDesignDay,                        ! Day Type
  0,                                      ! Daylight Saving Time Indicator
  Wetbulb,                                ! Humidity Indicating Type
  ,                                       ! Humidity Indicating Day Schedule Name
  DefaultMultipliers,                     ! Dry-Bulb Temperature Range Modifier Type
  ,                                       ! Dry-Bulb Temperature Range Modifier Schedule Name
  ASHRAEClearSky;                         ! Solar Model Indicator

OS:ComponentData,
  {52f70db9-dc30-4eae-8e50-0350c6e00fc9}, ! Handle
  Component Data 1,                       ! Name
  {cf514cb8-9255-409d-ab5c-d419f338534f}, ! UUID
  {6df6a616-fc01-49f4-9016-03b4f35e8353}, ! Version UUID
  1366305607,                             ! Creation Timestamp
  1366305607,                             ! Version Timestamp
  {1657b63c-0caf-4043-82d0-fa18e1458581}; ! Name of Object 1

