
OS:Version,
  {bcfb0314-4578-4d0d-a190-f34519e413db}, ! Handle
  0.9.3;                                  ! Version Identifier

OS:SizingPeriod:DesignDay,
  {3a3993f7-293c-47cf-b4d0-b5c0c3901585}, ! Handle
  YAKUTAT Ann Clg 2% Condns Enth=>MDB,    ! Name
  15.4,                                   ! Maximum Dry-Bulb Temperature {C}
  5.8,                                    ! Daily Dry-Bulb Temperature Range {deltaC}
  37500,                                  ! Humidity Indicating Conditions at Maximum Dry-Bulb {BasedOnField A3}
  101217,                                 ! Barometric Pressure {Pa}
  3.4,                                    ! Wind Speed {m/s}
  320,                                    ! Wind Direction {deg}
  0,                                      ! Sky Clearness
  0,                                      ! Rain Indicator
  0,                                      ! Snow Indicator
  21,                                     ! Day of Month
  7,                                      ! Month
  SummerDesignDay,                        ! Day Type
  0,                                      ! Daylight Saving Time Indicator
  Enthalpy,                               ! Humidity Indicating Type
  ,                                       ! Humidity Indicating Day Schedule Name
  DefaultMultipliers,                     ! Dry-Bulb Temperature Range Modifier Type
  ,                                       ! Dry-Bulb Temperature Range Modifier Schedule Name
  ASHRAETau,                              ! Solar Model Indicator
  ,                                       ! Beam Solar Day Schedule Name
  ,                                       ! Diffuse Solar Day Schedule Name
  0.371,                                  ! ASHRAE Taub {dimensionless}
  2.194;                                  ! ASHRAE Taud {dimensionless}

OS:ComponentData,
  {1322432a-b0ab-4113-91f4-8582683f7e2a}, ! Handle
  Component Data 1,                       ! Name
  {21582a00-5b82-4fe6-aa11-d5c840b701bb}, ! UUID
  {0e4e2f9f-8818-4202-94c4-5ff05e133c35}, ! Version UUID
  1366305621,                             ! Creation Timestamp
  1366305621,                             ! Version Timestamp
  {3a3993f7-293c-47cf-b4d0-b5c0c3901585}; ! Name of Object 1

