
OS:Version,
  {f7456537-8650-47d9-8d73-059c2260b3ff}, ! Handle
  0.9.3;                                  ! Version Identifier

OS:SizingPeriod:DesignDay,
  {b9708f41-4b86-440e-8a5f-536c7bea672d}, ! Handle
  Pocatello Regional Ap Ann Clg .4% Condns DP=>MDB, ! Name
  21.8,                                   ! Maximum Dry-Bulb Temperature {C}
  18.7,                                   ! Daily Dry-Bulb Temperature Range {deltaC}
  14.9,                                   ! Humidity Indicating Conditions at Maximum Dry-Bulb {BasedOnField A3}
  86092,                                  ! Barometric Pressure {Pa}
  4.8,                                    ! Wind Speed {m/s}
  240,                                    ! Wind Direction {deg}
  0,                                      ! Sky Clearness
  0,                                      ! Rain Indicator
  0,                                      ! Snow Indicator
  21,                                     ! Day of Month
  7,                                      ! Month
  SummerDesignDay,                        ! Day Type
  0,                                      ! Daylight Saving Time Indicator
  Dewpoint,                               ! Humidity Indicating Type
  ,                                       ! Humidity Indicating Day Schedule Name
  DefaultMultipliers,                     ! Dry-Bulb Temperature Range Modifier Type
  ,                                       ! Dry-Bulb Temperature Range Modifier Schedule Name
  ASHRAETau,                              ! Solar Model Indicator
  ,                                       ! Beam Solar Day Schedule Name
  ,                                       ! Diffuse Solar Day Schedule Name
  0.416,                                  ! ASHRAE Taub {dimensionless}
  2.003;                                  ! ASHRAE Taud {dimensionless}

OS:ComponentData,
  {53e461ce-fecb-40bd-905c-2b66dc9a259a}, ! Handle
  Component Data 1,                       ! Name
  {87f07170-4995-418c-9a21-bcb87ffd1e4e}, ! UUID
  {0f9f39a5-bcfb-482d-977b-91405cd54b9e}, ! Version UUID
  1366307308,                             ! Creation Timestamp
  1366307308,                             ! Version Timestamp
  {b9708f41-4b86-440e-8a5f-536c7bea672d}; ! Name of Object 1

