
OS:Version,
  {28d75f42-1d60-4f28-a581-93db7fca8aaa}, ! Handle
  0.9.3;                                  ! Version Identifier

OS:SizingPeriod:DesignDay,
  {5fa623d2-e024-493d-8ead-d6d6e20c9797}, ! Handle
  ST._LOUIS Ann Htg Wind 99.6% Condns WS=>MCDB, ! Name
  -2.3,                                   ! Maximum Dry-Bulb Temperature {C}
  0,                                      ! Daily Dry-Bulb Temperature Range {deltaC}
  -2.3,                                   ! Humidity Indicating Conditions at Maximum Dry-Bulb {BasedOnField A3}
  99276,                                  ! Barometric Pressure {Pa}
  12.7,                                   ! Wind Speed {m/s}
  300,                                    ! Wind Direction {deg}
  0,                                      ! Sky Clearness
  0,                                      ! Rain Indicator
  0,                                      ! Snow Indicator
  21,                                     ! Day of Month
  1,                                      ! Month
  WinterDesignDay,                        ! Day Type
  0,                                      ! Daylight Saving Time Indicator
  Wetbulb,                                ! Humidity Indicating Type
  ,                                       ! Humidity Indicating Day Schedule Name
  DefaultMultipliers,                     ! Dry-Bulb Temperature Range Modifier Type
  ,                                       ! Dry-Bulb Temperature Range Modifier Schedule Name
  ASHRAEClearSky;                         ! Solar Model Indicator

OS:ComponentData,
  {944c6ac0-5cbc-4019-97f5-cd3a4fa5a799}, ! Handle
  Component Data 1,                       ! Name
  {b4483cc1-dc70-40b1-bccc-f437f50156bd}, ! UUID
  {09159cc1-f347-4408-824a-ca86bb497fd9}, ! Version UUID
  1366308595,                             ! Creation Timestamp
  1366308595,                             ! Version Timestamp
  {5fa623d2-e024-493d-8ead-d6d6e20c9797}; ! Name of Object 1

