
OS:Version,
  {24ab2077-8046-447d-81ee-ccdf0ea9dbb5}, ! Handle
  0.9.3;                                  ! Version Identifier

OS:SizingPeriod:DesignDay,
  {fb1d220c-e171-4bbd-a257-243caef0cade}, ! Handle
  Texarkana Webb Field Ann Clg 2% Condns DB=>MWB, ! Name
  34.1,                                   ! Maximum Dry-Bulb Temperature {C}
  10.7,                                   ! Daily Dry-Bulb Temperature Range {deltaC}
  24.5,                                   ! Humidity Indicating Conditions at Maximum Dry-Bulb {BasedOnField A3}
  100011,                                 ! Barometric Pressure {Pa}
  3.4,                                    ! Wind Speed {m/s}
  190,                                    ! Wind Direction {deg}
  0,                                      ! Sky Clearness
  0,                                      ! Rain Indicator
  0,                                      ! Snow Indicator
  21,                                     ! Day of Month
  7,                                      ! Month
  SummerDesignDay,                        ! Day Type
  0,                                      ! Daylight Saving Time Indicator
  Wetbulb,                                ! Humidity Indicating Type
  ,                                       ! Humidity Indicating Day Schedule Name
  DefaultMultipliers,                     ! Dry-Bulb Temperature Range Modifier Type
  ,                                       ! Dry-Bulb Temperature Range Modifier Schedule Name
  ASHRAETau,                              ! Solar Model Indicator
  ,                                       ! Beam Solar Day Schedule Name
  ,                                       ! Diffuse Solar Day Schedule Name
  0.486,                                  ! ASHRAE Taub {dimensionless}
  2.004;                                  ! ASHRAE Taud {dimensionless}

OS:ComponentData,
  {5b1b6bbd-69b5-4393-8644-242d973764a7}, ! Handle
  Component Data 1,                       ! Name
  {f85273eb-29ca-464f-ac01-4e39da51a35b}, ! UUID
  {2f7760a3-9998-4b4e-a151-bc930691bfba}, ! Version UUID
  1366306254,                             ! Creation Timestamp
  1366306254,                             ! Version Timestamp
  {fb1d220c-e171-4bbd-a257-243caef0cade}; ! Name of Object 1

