
OS:Version,
  {f36647cc-8e2c-4b80-bb38-f26df6abd753}, ! Handle
  0.9.3;                                  ! Version Identifier

OS:SizingPeriod:DesignDay,
  {9bb6539b-05fe-4ee0-8cb1-608eaad9d596}, ! Handle
  Menominee  Awos Ann Clg .4% Condns DB=>MWB, ! Name
  30,                                     ! Maximum Dry-Bulb Temperature {C}
  10.4,                                   ! Daily Dry-Bulb Temperature Range {deltaC}
  21.4,                                   ! Humidity Indicating Conditions at Maximum Dry-Bulb {BasedOnField A3}
  99051,                                  ! Barometric Pressure {Pa}
  4.6,                                    ! Wind Speed {m/s}
  230,                                    ! Wind Direction {deg}
  0,                                      ! Sky Clearness
  0,                                      ! Rain Indicator
  0,                                      ! Snow Indicator
  21,                                     ! Day of Month
  7,                                      ! Month
  SummerDesignDay,                        ! Day Type
  0,                                      ! Daylight Saving Time Indicator
  Wetbulb,                                ! Humidity Indicating Type
  ,                                       ! Humidity Indicating Day Schedule Name
  DefaultMultipliers,                     ! Dry-Bulb Temperature Range Modifier Type
  ,                                       ! Dry-Bulb Temperature Range Modifier Schedule Name
  ASHRAETau,                              ! Solar Model Indicator
  ,                                       ! Beam Solar Day Schedule Name
  ,                                       ! Diffuse Solar Day Schedule Name
  0.425,                                  ! ASHRAE Taub {dimensionless}
  2.15;                                   ! ASHRAE Taud {dimensionless}

OS:ComponentData,
  {fb0b1b1a-a287-44b3-8db5-afbafec396a3}, ! Handle
  Component Data 1,                       ! Name
  {96aee49e-1edc-4656-9581-96846d4d2800}, ! UUID
  {e0770053-d5a3-4de1-9ed0-9da522f2f71d}, ! Version UUID
  1366308064,                             ! Creation Timestamp
  1366308064,                             ! Version Timestamp
  {9bb6539b-05fe-4ee0-8cb1-608eaad9d596}; ! Name of Object 1

