
OS:Version,
  {4da9538b-2193-4d49-b618-f55206224851}, ! Handle
  0.9.3;                                  ! Version Identifier

OS:SizingPeriod:DesignDay,
  {d965eb71-c3a4-42e6-9985-dc1171e6e3b2}, ! Handle
  Tupelo C D Lemons Arpt Ann Clg 2% Condns WB=>MDB, ! Name
  30.8,                                   ! Maximum Dry-Bulb Temperature {C}
  10.4,                                   ! Daily Dry-Bulb Temperature Range {deltaC}
  25.2,                                   ! Humidity Indicating Conditions at Maximum Dry-Bulb {BasedOnField A3}
  100011,                                 ! Barometric Pressure {Pa}
  3.1,                                    ! Wind Speed {m/s}
  250,                                    ! Wind Direction {deg}
  0,                                      ! Sky Clearness
  0,                                      ! Rain Indicator
  0,                                      ! Snow Indicator
  21,                                     ! Day of Month
  7,                                      ! Month
  SummerDesignDay,                        ! Day Type
  0,                                      ! Daylight Saving Time Indicator
  Wetbulb,                                ! Humidity Indicating Type
  ,                                       ! Humidity Indicating Day Schedule Name
  DefaultMultipliers,                     ! Dry-Bulb Temperature Range Modifier Type
  ,                                       ! Dry-Bulb Temperature Range Modifier Schedule Name
  ASHRAETau,                              ! Solar Model Indicator
  ,                                       ! Beam Solar Day Schedule Name
  ,                                       ! Diffuse Solar Day Schedule Name
  0.544,                                  ! ASHRAE Taub {dimensionless}
  1.812;                                  ! ASHRAE Taud {dimensionless}

OS:ComponentData,
  {a8b33601-2877-4303-b3e8-2f64c1cf23f1}, ! Handle
  Component Data 1,                       ! Name
  {84fc77c6-5dd3-40d2-abb4-409f1ba6ef47}, ! UUID
  {9cae29fd-a1dc-4622-ad14-7e7d20ccc54e}, ! Version UUID
  1366308691,                             ! Creation Timestamp
  1366308691,                             ! Version Timestamp
  {d965eb71-c3a4-42e6-9985-dc1171e6e3b2}; ! Name of Object 1

