
OS:Version,
  {f25a2d40-3158-41d6-92e6-9237db73337e}, ! Handle
  0.9.3;                                  ! Version Identifier

OS:SizingPeriod:DesignDay,
  {57cc09bb-88dc-43cc-8155-0731afc80511}, ! Handle
  Oklahoma City/Will Rog Ann Clg 2% Condns Enth=>MDB, ! Name
  31.6,                                   ! Maximum Dry-Bulb Temperature {C}
  11.7,                                   ! Daily Dry-Bulb Temperature Range {deltaC}
  75100,                                  ! Humidity Indicating Conditions at Maximum Dry-Bulb {BasedOnField A3}
  96646,                                  ! Barometric Pressure {Pa}
  5.5,                                    ! Wind Speed {m/s}
  170,                                    ! Wind Direction {deg}
  0,                                      ! Sky Clearness
  0,                                      ! Rain Indicator
  0,                                      ! Snow Indicator
  21,                                     ! Day of Month
  7,                                      ! Month
  SummerDesignDay,                        ! Day Type
  0,                                      ! Daylight Saving Time Indicator
  Enthalpy,                               ! Humidity Indicating Type
  ,                                       ! Humidity Indicating Day Schedule Name
  DefaultMultipliers,                     ! Dry-Bulb Temperature Range Modifier Type
  ,                                       ! Dry-Bulb Temperature Range Modifier Schedule Name
  ASHRAETau,                              ! Solar Model Indicator
  ,                                       ! Beam Solar Day Schedule Name
  ,                                       ! Diffuse Solar Day Schedule Name
  0.426,                                  ! ASHRAE Taub {dimensionless}
  2.214;                                  ! ASHRAE Taud {dimensionless}

OS:ComponentData,
  {7633cbf4-6150-4373-bae4-448e07367bfa}, ! Handle
  Component Data 1,                       ! Name
  {e2c30f77-1eab-4bb6-971a-83edde8f9e9f}, ! UUID
  {fd64b335-c375-4a42-b2de-a653861670fc}, ! Version UUID
  1366309924,                             ! Creation Timestamp
  1366309924,                             ! Version Timestamp
  {57cc09bb-88dc-43cc-8155-0731afc80511}; ! Name of Object 1

