
OS:Version,
  {9cb66f62-7488-45f9-9e91-b2d19e004f1a}, ! Handle
  0.9.3;                                  ! Version Identifier

OS:SizingPeriod:DesignDay,
  {320f792c-e4e3-4333-9162-4fa2c956f6d2}, ! Handle
  Rock Springs Ann Clg .4% Condns DB=>MWB, ! Name
  31.1,                                   ! Maximum Dry-Bulb Temperature {C}
  15.3,                                   ! Daily Dry-Bulb Temperature Range {deltaC}
  13.2,                                   ! Humidity Indicating Conditions at Maximum Dry-Bulb {BasedOnField A3}
  78905,                                  ! Barometric Pressure {Pa}
  5.3,                                    ! Wind Speed {m/s}
  260,                                    ! Wind Direction {deg}
  0,                                      ! Sky Clearness
  0,                                      ! Rain Indicator
  0,                                      ! Snow Indicator
  21,                                     ! Day of Month
  7,                                      ! Month
  SummerDesignDay,                        ! Day Type
  0,                                      ! Daylight Saving Time Indicator
  Wetbulb,                                ! Humidity Indicating Type
  ,                                       ! Humidity Indicating Day Schedule Name
  DefaultMultipliers,                     ! Dry-Bulb Temperature Range Modifier Type
  ,                                       ! Dry-Bulb Temperature Range Modifier Schedule Name
  ASHRAETau,                              ! Solar Model Indicator
  ,                                       ! Beam Solar Day Schedule Name
  ,                                       ! Diffuse Solar Day Schedule Name
  0.402,                                  ! ASHRAE Taub {dimensionless}
  1.99;                                   ! ASHRAE Taud {dimensionless}

OS:ComponentData,
  {cf0c2592-a603-4d48-ba53-e35a84da152a}, ! Handle
  Component Data 1,                       ! Name
  {6404f856-cf2a-441e-9f83-06d28d022efb}, ! UUID
  {0ef9a9de-e642-41dc-9207-d3690ce76921}, ! Version UUID
  1366311733,                             ! Creation Timestamp
  1366311733,                             ! Version Timestamp
  {320f792c-e4e3-4333-9162-4fa2c956f6d2}; ! Name of Object 1

