
OS:Version,
  {11458fbd-f260-45b5-9422-3811455b6b13}, ! Handle
  0.9.3;                                  ! Version Identifier

OS:SizingPeriod:DesignDay,
  {4ad9f756-07b2-46ed-af65-f04211b9475f}, ! Handle
  San Diego Lindbergh Field Ann Clg 2% Condns DB=>MWB, ! Name
  25.9,                                   ! Maximum Dry-Bulb Temperature {C}
  4.9,                                    ! Daily Dry-Bulb Temperature Range {deltaC}
  19.4,                                   ! Humidity Indicating Conditions at Maximum Dry-Bulb {BasedOnField A3}
  101277,                                 ! Barometric Pressure {Pa}
  4.6,                                    ! Wind Speed {m/s}
  300,                                    ! Wind Direction {deg}
  0,                                      ! Sky Clearness
  0,                                      ! Rain Indicator
  0,                                      ! Snow Indicator
  21,                                     ! Day of Month
  8,                                      ! Month
  SummerDesignDay,                        ! Day Type
  0,                                      ! Daylight Saving Time Indicator
  Wetbulb,                                ! Humidity Indicating Type
  ,                                       ! Humidity Indicating Day Schedule Name
  DefaultMultipliers,                     ! Dry-Bulb Temperature Range Modifier Type
  ,                                       ! Dry-Bulb Temperature Range Modifier Schedule Name
  ASHRAETau,                              ! Solar Model Indicator
  ,                                       ! Beam Solar Day Schedule Name
  ,                                       ! Diffuse Solar Day Schedule Name
  0.426,                                  ! ASHRAE Taub {dimensionless}
  2.214;                                  ! ASHRAE Taud {dimensionless}

OS:ComponentData,
  {099d7459-180c-4fd8-b20b-6e3cda00d01b}, ! Handle
  Component Data 1,                       ! Name
  {2f7f03e9-6f08-430b-a28f-a1f41fe6b692}, ! UUID
  {ac25b3bb-edc3-4b5a-a9bf-86d9ccfc5867}, ! Version UUID
  1366306575,                             ! Creation Timestamp
  1366306575,                             ! Version Timestamp
  {4ad9f756-07b2-46ed-af65-f04211b9475f}; ! Name of Object 1

