
OS:Version,
  {e0565250-d987-498b-a6bc-5ed36650455b}, ! Handle
  0.9.3;                                  ! Version Identifier

OS:SizingPeriod:DesignDay,
  {a390cf81-c51e-4ac1-93b3-09c4f3bd98bf}, ! Handle
  Oklahoma City/Will Rog Ann Clg .4% Condns DP=>MDB, ! Name
  28.7,                                   ! Maximum Dry-Bulb Temperature {C}
  11.7,                                   ! Daily Dry-Bulb Temperature Range {deltaC}
  23.4,                                   ! Humidity Indicating Conditions at Maximum Dry-Bulb {BasedOnField A3}
  96646,                                  ! Barometric Pressure {Pa}
  5.5,                                    ! Wind Speed {m/s}
  170,                                    ! Wind Direction {deg}
  0,                                      ! Sky Clearness
  0,                                      ! Rain Indicator
  0,                                      ! Snow Indicator
  21,                                     ! Day of Month
  7,                                      ! Month
  SummerDesignDay,                        ! Day Type
  0,                                      ! Daylight Saving Time Indicator
  Dewpoint,                               ! Humidity Indicating Type
  ,                                       ! Humidity Indicating Day Schedule Name
  DefaultMultipliers,                     ! Dry-Bulb Temperature Range Modifier Type
  ,                                       ! Dry-Bulb Temperature Range Modifier Schedule Name
  ASHRAETau,                              ! Solar Model Indicator
  ,                                       ! Beam Solar Day Schedule Name
  ,                                       ! Diffuse Solar Day Schedule Name
  0.426,                                  ! ASHRAE Taub {dimensionless}
  2.214;                                  ! ASHRAE Taud {dimensionless}

OS:ComponentData,
  {0186383b-5d6a-4a9a-85dd-057aaa11f1e6}, ! Handle
  Component Data 1,                       ! Name
  {cd09d7f3-b959-4a1c-b8db-37063cc1b787}, ! UUID
  {ed3435ee-9e49-4f8a-a546-af88eac6ed1b}, ! Version UUID
  1366309923,                             ! Creation Timestamp
  1366309923,                             ! Version Timestamp
  {a390cf81-c51e-4ac1-93b3-09c4f3bd98bf}; ! Name of Object 1

