
OS:Version,
  {010d889b-1f62-4c3d-bed6-509128fe9123}, ! Handle
  0.9.3;                                  ! Version Identifier

OS:SizingPeriod:DesignDay,
  {6b14621a-641d-4643-926b-5e6f5e10f77d}, ! Handle
  Siloam Spring Awos Ann Htg 99% Condns DB, ! Name
  -8.8,                                   ! Maximum Dry-Bulb Temperature {C}
  0,                                      ! Daily Dry-Bulb Temperature Range {deltaC}
  -8.8,                                   ! Humidity Indicating Conditions at Maximum Dry-Bulb {BasedOnField A3}
  97028,                                  ! Barometric Pressure {Pa}
  3.5,                                    ! Wind Speed {m/s}
  10,                                     ! Wind Direction {deg}
  0,                                      ! Sky Clearness
  0,                                      ! Rain Indicator
  0,                                      ! Snow Indicator
  21,                                     ! Day of Month
  1,                                      ! Month
  WinterDesignDay,                        ! Day Type
  0,                                      ! Daylight Saving Time Indicator
  Wetbulb,                                ! Humidity Indicating Type
  ,                                       ! Humidity Indicating Day Schedule Name
  DefaultMultipliers,                     ! Dry-Bulb Temperature Range Modifier Type
  ,                                       ! Dry-Bulb Temperature Range Modifier Schedule Name
  ASHRAEClearSky;                         ! Solar Model Indicator

OS:ComponentData,
  {c7e6a997-5ed0-42dd-8cac-235b554f1a20}, ! Handle
  Component Data 1,                       ! Name
  {85e80c39-6675-4dfc-8075-8d69c9159301}, ! UUID
  {361b0009-0cb2-4f17-9c7c-f25dfe6a9633}, ! Version UUID
  1366306245,                             ! Creation Timestamp
  1366306245,                             ! Version Timestamp
  {6b14621a-641d-4643-926b-5e6f5e10f77d}; ! Name of Object 1

