
OS:Version,
  {5c7331dc-5d8b-4ad0-8e51-2c4a857d55a8}, ! Handle
  0.9.3;                                  ! Version Identifier

OS:SizingPeriod:DesignDay,
  {1e09b9be-c5ed-4e1a-9766-d20bf811c4b0}, ! Handle
  Patterson Memorial Ann Clg 2% Condns DB=>MWB, ! Name
  32.4,                                   ! Maximum Dry-Bulb Temperature {C}
  8.9,                                    ! Daily Dry-Bulb Temperature Range {deltaC}
  24.6,                                   ! Humidity Indicating Conditions at Maximum Dry-Bulb {BasedOnField A3}
  101289,                                 ! Barometric Pressure {Pa}
  3.4,                                    ! Wind Speed {m/s}
  350,                                    ! Wind Direction {deg}
  0,                                      ! Sky Clearness
  0,                                      ! Rain Indicator
  0,                                      ! Snow Indicator
  21,                                     ! Day of Month
  8,                                      ! Month
  SummerDesignDay,                        ! Day Type
  0,                                      ! Daylight Saving Time Indicator
  Wetbulb,                                ! Humidity Indicating Type
  ,                                       ! Humidity Indicating Day Schedule Name
  DefaultMultipliers,                     ! Dry-Bulb Temperature Range Modifier Type
  ,                                       ! Dry-Bulb Temperature Range Modifier Schedule Name
  ASHRAETau,                              ! Solar Model Indicator
  ,                                       ! Beam Solar Day Schedule Name
  ,                                       ! Diffuse Solar Day Schedule Name
  0.54,                                   ! ASHRAE Taub {dimensionless}
  1.85;                                   ! ASHRAE Taud {dimensionless}

OS:ComponentData,
  {276ba5cd-104c-4ede-b09e-ca3322863889}, ! Handle
  Component Data 1,                       ! Name
  {61a2306b-fa66-46f3-a20f-0afd8513defd}, ! UUID
  {b53f283c-5129-4824-b72d-85912eda8423}, ! Version UUID
  1366307758,                             ! Creation Timestamp
  1366307758,                             ! Version Timestamp
  {1e09b9be-c5ed-4e1a-9766-d20bf811c4b0}; ! Name of Object 1

