
OS:Version,
  {45dea15d-a6ca-4978-94f2-30e6a189c69f}, ! Handle
  0.9.3;                                  ! Version Identifier

OS:SizingPeriod:DesignDay,
  {fa73b9c7-b3d7-415b-b04c-a1edc718837f}, ! Handle
  Plymouth Municipal Ann Clg .4% Condns DB=>MWB, ! Name
  31.3,                                   ! Maximum Dry-Bulb Temperature {C}
  10.5,                                   ! Daily Dry-Bulb Temperature Range {deltaC}
  22.8,                                   ! Humidity Indicating Conditions at Maximum Dry-Bulb {BasedOnField A3}
  100786,                                 ! Barometric Pressure {Pa}
  4.9,                                    ! Wind Speed {m/s}
  220,                                    ! Wind Direction {deg}
  0,                                      ! Sky Clearness
  0,                                      ! Rain Indicator
  0,                                      ! Snow Indicator
  21,                                     ! Day of Month
  7,                                      ! Month
  SummerDesignDay,                        ! Day Type
  0,                                      ! Daylight Saving Time Indicator
  Wetbulb,                                ! Humidity Indicating Type
  ,                                       ! Humidity Indicating Day Schedule Name
  DefaultMultipliers,                     ! Dry-Bulb Temperature Range Modifier Type
  ,                                       ! Dry-Bulb Temperature Range Modifier Schedule Name
  ASHRAETau,                              ! Solar Model Indicator
  ,                                       ! Beam Solar Day Schedule Name
  ,                                       ! Diffuse Solar Day Schedule Name
  0.502,                                  ! ASHRAE Taub {dimensionless}
  1.901;                                  ! ASHRAE Taud {dimensionless}

OS:ComponentData,
  {0e27d758-793c-4bcb-b33f-00d3254b7251}, ! Handle
  Component Data 1,                       ! Name
  {4c27defa-f6ed-439b-90ec-5504e075649c}, ! UUID
  {74fd77bf-4ba1-4567-962d-42bfb65d07da}, ! Version UUID
  1366307818,                             ! Creation Timestamp
  1366307818,                             ! Version Timestamp
  {fa73b9c7-b3d7-415b-b04c-a1edc718837f}; ! Name of Object 1

