
OS:Version,
  {423838ab-a085-4dac-a229-e32cd853c192}, ! Handle
  0.9.3;                                  ! Version Identifier

OS:SizingPeriod:DesignDay,
  {1e4d9e1f-ff1c-4230-b0e5-2478ffa01a21}, ! Handle
  WILLIAMSPORT Ann Clg 1% Condns Enth=>MDB, ! Name
  28.7,                                   ! Maximum Dry-Bulb Temperature {C}
  11.6,                                   ! Daily Dry-Bulb Temperature Range {deltaC}
  70500,                                  ! Humidity Indicating Conditions at Maximum Dry-Bulb {BasedOnField A3}
  98440,                                  ! Barometric Pressure {Pa}
  4.2,                                    ! Wind Speed {m/s}
  260,                                    ! Wind Direction {deg}
  0,                                      ! Sky Clearness
  0,                                      ! Rain Indicator
  0,                                      ! Snow Indicator
  21,                                     ! Day of Month
  7,                                      ! Month
  SummerDesignDay,                        ! Day Type
  0,                                      ! Daylight Saving Time Indicator
  Enthalpy,                               ! Humidity Indicating Type
  ,                                       ! Humidity Indicating Day Schedule Name
  DefaultMultipliers,                     ! Dry-Bulb Temperature Range Modifier Type
  ,                                       ! Dry-Bulb Temperature Range Modifier Schedule Name
  ASHRAETau,                              ! Solar Model Indicator
  ,                                       ! Beam Solar Day Schedule Name
  ,                                       ! Diffuse Solar Day Schedule Name
  0.499,                                  ! ASHRAE Taub {dimensionless}
  1.884;                                  ! ASHRAE Taud {dimensionless}

OS:ComponentData,
  {ede94391-0dc7-40cc-9dff-3089e666632f}, ! Handle
  Component Data 1,                       ! Name
  {4b6f294e-badb-4c24-80b1-52fd7c25261f}, ! UUID
  {9020155b-3c12-48bf-a4c5-e295494cbb8c}, ! Version UUID
  1366310276,                             ! Creation Timestamp
  1366310276,                             ! Version Timestamp
  {1e4d9e1f-ff1c-4230-b0e5-2478ffa01a21}; ! Name of Object 1

