
OS:Version,
  {2ea8de5e-033a-4353-b423-120774fff64b}, ! Handle
  0.9.3;                                  ! Version Identifier

OS:SizingPeriod:DesignDay,
  {e25b7062-399f-4cb5-82cb-812f1774c262}, ! Handle
  TALLAHASSEE Ann Clg .4% Condns WB=>MDB, ! Name
  31.8,                                   ! Maximum Dry-Bulb Temperature {C}
  10.6,                                   ! Daily Dry-Bulb Temperature Range {deltaC}
  26.5,                                   ! Humidity Indicating Conditions at Maximum Dry-Bulb {BasedOnField A3}
  101073,                                 ! Barometric Pressure {Pa}
  3.4,                                    ! Wind Speed {m/s}
  10,                                     ! Wind Direction {deg}
  0,                                      ! Sky Clearness
  0,                                      ! Rain Indicator
  0,                                      ! Snow Indicator
  21,                                     ! Day of Month
  7,                                      ! Month
  SummerDesignDay,                        ! Day Type
  0,                                      ! Daylight Saving Time Indicator
  Wetbulb,                                ! Humidity Indicating Type
  ,                                       ! Humidity Indicating Day Schedule Name
  DefaultMultipliers,                     ! Dry-Bulb Temperature Range Modifier Type
  ,                                       ! Dry-Bulb Temperature Range Modifier Schedule Name
  ASHRAETau,                              ! Solar Model Indicator
  ,                                       ! Beam Solar Day Schedule Name
  ,                                       ! Diffuse Solar Day Schedule Name
  0.537,                                  ! ASHRAE Taub {dimensionless}
  1.879;                                  ! ASHRAE Taud {dimensionless}

OS:ComponentData,
  {62c49efb-548c-4611-b828-2111a20d18bb}, ! Handle
  Component Data 1,                       ! Name
  {df549838-13d6-4eeb-846d-a1ae7b056f0d}, ! UUID
  {f3bce5ce-3742-4d46-a21f-c0d36c7e782f}, ! Version UUID
  1366306920,                             ! Creation Timestamp
  1366306920,                             ! Version Timestamp
  {e25b7062-399f-4cb5-82cb-812f1774c262}; ! Name of Object 1

