
OS:Version,
  {2b1efb51-f287-4bd8-a666-583e1d615dab}, ! Handle
  0.9.3;                                  ! Version Identifier

OS:SizingPeriod:DesignDay,
  {07c153b5-243f-41a4-b369-7c7457a8ad61}, ! Handle
  Zanesville Municipal Ap Ann Clg 1% Condns WB=>MDB, ! Name
  28.8,                                   ! Maximum Dry-Bulb Temperature {C}
  11.2,                                   ! Daily Dry-Bulb Temperature Range {deltaC}
  23.9,                                   ! Humidity Indicating Conditions at Maximum Dry-Bulb {BasedOnField A3}
  98147,                                  ! Barometric Pressure {Pa}
  4.2,                                    ! Wind Speed {m/s}
  240,                                    ! Wind Direction {deg}
  0,                                      ! Sky Clearness
  0,                                      ! Rain Indicator
  0,                                      ! Snow Indicator
  21,                                     ! Day of Month
  7,                                      ! Month
  SummerDesignDay,                        ! Day Type
  0,                                      ! Daylight Saving Time Indicator
  Wetbulb,                                ! Humidity Indicating Type
  ,                                       ! Humidity Indicating Day Schedule Name
  DefaultMultipliers,                     ! Dry-Bulb Temperature Range Modifier Type
  ,                                       ! Dry-Bulb Temperature Range Modifier Schedule Name
  ASHRAETau,                              ! Solar Model Indicator
  ,                                       ! Beam Solar Day Schedule Name
  ,                                       ! Diffuse Solar Day Schedule Name
  0.485,                                  ! ASHRAE Taub {dimensionless}
  1.937;                                  ! ASHRAE Taud {dimensionless}

OS:ComponentData,
  {9a7648ad-084b-4bca-b1df-c6e2b181d182}, ! Handle
  Component Data 1,                       ! Name
  {c1675ba6-b11e-4c24-9a69-0b0fae22df2b}, ! UUID
  {0c5a903d-01db-482b-962c-26fec32566f3}, ! Version UUID
  1366309874,                             ! Creation Timestamp
  1366309874,                             ! Version Timestamp
  {07c153b5-243f-41a4-b369-7c7457a8ad61}; ! Name of Object 1

