
OS:Version,
  {835ca86f-f911-4dee-9380-14baea7231b6}, ! Handle
  0.9.3;                                  ! Version Identifier

OS:SizingPeriod:DesignDay,
  {9daf5296-4fa4-477e-b48b-1eceeabf6324}, ! Handle
  Panama City Bay Co Ann Clg .4% Condns DP=>MDB, ! Name
  29.2,                                   ! Maximum Dry-Bulb Temperature {C}
  7.6,                                    ! Daily Dry-Bulb Temperature Range {deltaC}
  27,                                     ! Humidity Indicating Conditions at Maximum Dry-Bulb {BasedOnField A3}
  101253,                                 ! Barometric Pressure {Pa}
  4.1,                                    ! Wind Speed {m/s}
  260,                                    ! Wind Direction {deg}
  0,                                      ! Sky Clearness
  0,                                      ! Rain Indicator
  0,                                      ! Snow Indicator
  21,                                     ! Day of Month
  7,                                      ! Month
  SummerDesignDay,                        ! Day Type
  0,                                      ! Daylight Saving Time Indicator
  Dewpoint,                               ! Humidity Indicating Type
  ,                                       ! Humidity Indicating Day Schedule Name
  DefaultMultipliers,                     ! Dry-Bulb Temperature Range Modifier Type
  ,                                       ! Dry-Bulb Temperature Range Modifier Schedule Name
  ASHRAETau,                              ! Solar Model Indicator
  ,                                       ! Beam Solar Day Schedule Name
  ,                                       ! Diffuse Solar Day Schedule Name
  0.522,                                  ! ASHRAE Taub {dimensionless}
  1.923;                                  ! ASHRAE Taud {dimensionless}

