
OS:Version,
  {bc5b14d5-8429-42e8-81b5-22282eb45d8b}, ! Handle
  0.9.3;                                  ! Version Identifier

OS:SizingPeriod:DesignDay,
  {6054220b-cf07-4661-b80a-bf1b234b5e72}, ! Handle
  Sherman-Denison Ann Clg 2% Condns DB=>MWB, ! Name
  36.2,                                   ! Maximum Dry-Bulb Temperature {C}
  13.1,                                   ! Daily Dry-Bulb Temperature Range {deltaC}
  23.9,                                   ! Humidity Indicating Conditions at Maximum Dry-Bulb {BasedOnField A3}
  98557,                                  ! Barometric Pressure {Pa}
  4,                                      ! Wind Speed {m/s}
  130,                                    ! Wind Direction {deg}
  0,                                      ! Sky Clearness
  0,                                      ! Rain Indicator
  0,                                      ! Snow Indicator
  21,                                     ! Day of Month
  8,                                      ! Month
  SummerDesignDay,                        ! Day Type
  0,                                      ! Daylight Saving Time Indicator
  Wetbulb,                                ! Humidity Indicating Type
  ,                                       ! Humidity Indicating Day Schedule Name
  DefaultMultipliers,                     ! Dry-Bulb Temperature Range Modifier Type
  ,                                       ! Dry-Bulb Temperature Range Modifier Schedule Name
  ASHRAETau,                              ! Solar Model Indicator
  ,                                       ! Beam Solar Day Schedule Name
  ,                                       ! Diffuse Solar Day Schedule Name
  0.477,                                  ! ASHRAE Taub {dimensionless}
  2.02;                                   ! ASHRAE Taud {dimensionless}

OS:ComponentData,
  {be894fb3-caa2-4e2a-930b-e63f2797c13b}, ! Handle
  Component Data 1,                       ! Name
  {b89afb3e-c4d8-4b21-a9fe-74afc25246b5}, ! UUID
  {46de83cb-23b8-4492-917f-2c4bb7ad93c0}, ! Version UUID
  1366310902,                             ! Creation Timestamp
  1366310902,                             ! Version Timestamp
  {6054220b-cf07-4661-b80a-bf1b234b5e72}; ! Name of Object 1

