
OS:Version,
  {56758cfe-9692-42b6-a83b-e2220b11c3bc}, ! Handle
  0.9.3;                                  ! Version Identifier

OS:SizingPeriod:DesignDay,
  {361bf2a5-4371-4ada-9b61-3a1618a586e6}, ! Handle
  RICHMOND Ann Clg .4% Condns WB=>MDB,    ! Name
  31.9,                                   ! Maximum Dry-Bulb Temperature {C}
  10.4,                                   ! Daily Dry-Bulb Temperature Range {deltaC}
  25.9,                                   ! Humidity Indicating Conditions at Maximum Dry-Bulb {BasedOnField A3}
  100726,                                 ! Barometric Pressure {Pa}
  4.5,                                    ! Wind Speed {m/s}
  230,                                    ! Wind Direction {deg}
  0,                                      ! Sky Clearness
  0,                                      ! Rain Indicator
  0,                                      ! Snow Indicator
  21,                                     ! Day of Month
  7,                                      ! Month
  SummerDesignDay,                        ! Day Type
  0,                                      ! Daylight Saving Time Indicator
  Wetbulb,                                ! Humidity Indicating Type
  ,                                       ! Humidity Indicating Day Schedule Name
  DefaultMultipliers,                     ! Dry-Bulb Temperature Range Modifier Type
  ,                                       ! Dry-Bulb Temperature Range Modifier Schedule Name
  ASHRAETau,                              ! Solar Model Indicator
  ,                                       ! Beam Solar Day Schedule Name
  ,                                       ! Diffuse Solar Day Schedule Name
  0.567,                                  ! ASHRAE Taub {dimensionless}
  1.742;                                  ! ASHRAE Taud {dimensionless}

OS:ComponentData,
  {7238060c-6e4c-42b7-8ee6-7a0207306cca}, ! Handle
  Component Data 1,                       ! Name
  {1f621355-be58-42cb-b187-5a8e4f515d34}, ! UUID
  {26d1e317-119f-449a-b1c0-c940edf5672a}, ! Version UUID
  1366311164,                             ! Creation Timestamp
  1366311164,                             ! Version Timestamp
  {361bf2a5-4371-4ada-9b61-3a1618a586e6}; ! Name of Object 1

