
OS:Version,
  {f5ac463a-4a6c-475a-8a19-754918ea3ddd}, ! Handle
  0.9.3;                                  ! Version Identifier

OS:SizingPeriod:DesignDay,
  {08404197-8b86-4ec6-9f43-21743a3deb24}, ! Handle
  Mekoryuk Ann Clg 1% Condns DP=>MDB,     ! Name
  13.7,                                   ! Maximum Dry-Bulb Temperature {C}
  4.6,                                    ! Daily Dry-Bulb Temperature Range {deltaC}
  11.1,                                   ! Humidity Indicating Conditions at Maximum Dry-Bulb {BasedOnField A3}
  101145,                                 ! Barometric Pressure {Pa}
  5.8,                                    ! Wind Speed {m/s}
  180,                                    ! Wind Direction {deg}
  0,                                      ! Sky Clearness
  0,                                      ! Rain Indicator
  0,                                      ! Snow Indicator
  21,                                     ! Day of Month
  8,                                      ! Month
  SummerDesignDay,                        ! Day Type
  0,                                      ! Daylight Saving Time Indicator
  Dewpoint,                               ! Humidity Indicating Type
  ,                                       ! Humidity Indicating Day Schedule Name
  DefaultMultipliers,                     ! Dry-Bulb Temperature Range Modifier Type
  ,                                       ! Dry-Bulb Temperature Range Modifier Schedule Name
  ASHRAETau,                              ! Solar Model Indicator
  ,                                       ! Beam Solar Day Schedule Name
  ,                                       ! Diffuse Solar Day Schedule Name
  0.386,                                  ! ASHRAE Taub {dimensionless}
  2.213;                                  ! ASHRAE Taud {dimensionless}

OS:ComponentData,
  {30054c2c-4c22-41a7-9cc3-e4a5a46e9a10}, ! Handle
  Component Data 1,                       ! Name
  {36e85490-99c7-44b7-8741-941fa752f81c}, ! UUID
  {0e8a1c20-17c4-4e07-b4d8-09fe4e14c333}, ! Version UUID
  1366305425,                             ! Creation Timestamp
  1366305425,                             ! Version Timestamp
  {08404197-8b86-4ec6-9f43-21743a3deb24}; ! Name of Object 1

