
OS:Version,
  {83922897-11a3-4a01-8954-e862d2ef9984}, ! Handle
  0.9.3;                                  ! Version Identifier

OS:SizingPeriod:DesignDay,
  {d520c2cb-7598-4138-8bee-78ebfc7b5d27}, ! Handle
  Palm Springs Thermal Ap Ann Htg 99% Condns DB, ! Name
  1.2,                                    ! Maximum Dry-Bulb Temperature {C}
  0,                                      ! Daily Dry-Bulb Temperature Range {deltaC}
  1.2,                                    ! Humidity Indicating Conditions at Maximum Dry-Bulb {BasedOnField A3}
  101734,                                 ! Barometric Pressure {Pa}
  1.5,                                    ! Wind Speed {m/s}
  340,                                    ! Wind Direction {deg}
  0,                                      ! Sky Clearness
  0,                                      ! Rain Indicator
  0,                                      ! Snow Indicator
  21,                                     ! Day of Month
  12,                                     ! Month
  WinterDesignDay,                        ! Day Type
  0,                                      ! Daylight Saving Time Indicator
  Wetbulb,                                ! Humidity Indicating Type
  ,                                       ! Humidity Indicating Day Schedule Name
  DefaultMultipliers,                     ! Dry-Bulb Temperature Range Modifier Type
  ,                                       ! Dry-Bulb Temperature Range Modifier Schedule Name
  ASHRAEClearSky;                         ! Solar Model Indicator

OS:ComponentData,
  {93156e11-c773-47b5-9327-5e48996221d5}, ! Handle
  Component Data 1,                       ! Name
  {3bd245d8-46af-4c9b-97bd-70dd67958abc}, ! UUID
  {4bd90840-2140-409c-a86b-b21e9b694503}, ! Version UUID
  1366306527,                             ! Creation Timestamp
  1366306527,                             ! Version Timestamp
  {d520c2cb-7598-4138-8bee-78ebfc7b5d27}; ! Name of Object 1

