
OS:Version,
  {cd5e5674-53da-41a0-a7d1-e81b935eda13}, ! Handle
  0.9.3;                                  ! Version Identifier

OS:SizingPeriod:DesignDay,
  {5d64371c-6eb0-4767-8313-8db02e8b915c}, ! Handle
  Robert Gray Aaf Ann Hum_n 99.6% Condns DP=>MCDB, ! Name
  0.8,                                    ! Maximum Dry-Bulb Temperature {C}
  0,                                      ! Daily Dry-Bulb Temperature Range {deltaC}
  -12.3,                                  ! Humidity Indicating Conditions at Maximum Dry-Bulb {BasedOnField A3}
  97633,                                  ! Barometric Pressure {Pa}
  4,                                      ! Wind Speed {m/s}
  350,                                    ! Wind Direction {deg}
  0,                                      ! Sky Clearness
  0,                                      ! Rain Indicator
  0,                                      ! Snow Indicator
  21,                                     ! Day of Month
  1,                                      ! Month
  WinterDesignDay,                        ! Day Type
  0,                                      ! Daylight Saving Time Indicator
  Dewpoint,                               ! Humidity Indicating Type
  ,                                       ! Humidity Indicating Day Schedule Name
  DefaultMultipliers,                     ! Dry-Bulb Temperature Range Modifier Type
  ,                                       ! Dry-Bulb Temperature Range Modifier Schedule Name
  ASHRAEClearSky;                         ! Solar Model Indicator

