
OS:Version,
  {96c4ec0c-daa3-4104-93ff-f4bd02683ede}, ! Handle
  0.9.3;                                  ! Version Identifier

OS:SizingPeriod:DesignDay,
  {398dd7dd-93ba-45cd-b8a5-8356a18618bc}, ! Handle
  Newark International Arpt Ann Hum_n 99% Condns DP=>MCDB, ! Name
  -7,                                     ! Maximum Dry-Bulb Temperature {C}
  0,                                      ! Daily Dry-Bulb Temperature Range {deltaC}
  -18.6,                                  ! Humidity Indicating Conditions at Maximum Dry-Bulb {BasedOnField A3}
  101289,                                 ! Barometric Pressure {Pa}
  6.2,                                    ! Wind Speed {m/s}
  320,                                    ! Wind Direction {deg}
  0,                                      ! Sky Clearness
  0,                                      ! Rain Indicator
  0,                                      ! Snow Indicator
  21,                                     ! Day of Month
  1,                                      ! Month
  WinterDesignDay,                        ! Day Type
  0,                                      ! Daylight Saving Time Indicator
  Dewpoint,                               ! Humidity Indicating Type
  ,                                       ! Humidity Indicating Day Schedule Name
  DefaultMultipliers,                     ! Dry-Bulb Temperature Range Modifier Type
  ,                                       ! Dry-Bulb Temperature Range Modifier Schedule Name
  ASHRAEClearSky;                         ! Solar Model Indicator

OS:ComponentData,
  {bdb67572-4fec-49b1-9d59-b41364f4b637}, ! Handle
  Component Data 1,                       ! Name
  {a636327d-eeae-4bb9-8ee4-4934d9a2d1c8}, ! UUID
  {9ace88d0-0132-4af2-afca-b24d6e662e04}, ! Version UUID
  1366309338,                             ! Creation Timestamp
  1366309338,                             ! Version Timestamp
  {398dd7dd-93ba-45cd-b8a5-8356a18618bc}; ! Name of Object 1

