
OS:Version,
  {c5f1808f-d482-492a-a165-e7e1e5f4f95b}, ! Handle
  0.9.3;                                  ! Version Identifier

OS:SizingPeriod:DesignDay,
  {5318461a-d62a-4c1d-91ad-ff43c09af0e4}, ! Handle
  Yakutat State Arpt Ann Hum_n 99.6% Condns DP=>MCDB, ! Name
  -13.2,                                  ! Maximum Dry-Bulb Temperature {C}
  0,                                      ! Daily Dry-Bulb Temperature Range {deltaC}
  -22.3,                                  ! Humidity Indicating Conditions at Maximum Dry-Bulb {BasedOnField A3}
  101229,                                 ! Barometric Pressure {Pa}
  0.8,                                    ! Wind Speed {m/s}
  100,                                    ! Wind Direction {deg}
  0,                                      ! Sky Clearness
  0,                                      ! Rain Indicator
  0,                                      ! Snow Indicator
  21,                                     ! Day of Month
  1,                                      ! Month
  WinterDesignDay,                        ! Day Type
  0,                                      ! Daylight Saving Time Indicator
  Dewpoint,                               ! Humidity Indicating Type
  ,                                       ! Humidity Indicating Day Schedule Name
  DefaultMultipliers,                     ! Dry-Bulb Temperature Range Modifier Type
  ,                                       ! Dry-Bulb Temperature Range Modifier Schedule Name
  ASHRAEClearSky;                         ! Solar Model Indicator

OS:ComponentData,
  {ff3088d6-96dd-4f92-9d17-cdff94dd70b3}, ! Handle
  Component Data 1,                       ! Name
  {2dec6cce-d9b1-4203-a1f3-3829f1c3183f}, ! UUID
  {220b73a2-efb1-4563-bfaf-1290dbdd482a}, ! Version UUID
  1366305630,                             ! Creation Timestamp
  1366305630,                             ! Version Timestamp
  {5318461a-d62a-4c1d-91ad-ff43c09af0e4}; ! Name of Object 1

