
OS:Version,
  {9f40f660-9219-41e2-b0ff-606f468238ba}, ! Handle
  0.9.3;                                  ! Version Identifier

OS:SizingPeriod:DesignDay,
  {183411bd-c537-4811-bc76-6f7d55eeecbe}, ! Handle
  Tucson Ann Htg 99% Condns DB,           ! Name
  1.3,                                    ! Maximum Dry-Bulb Temperature {C}
  0,                                      ! Daily Dry-Bulb Temperature Range {deltaC}
  1.3,                                    ! Humidity Indicating Conditions at Maximum Dry-Bulb {BasedOnField A3}
  92310,                                  ! Barometric Pressure {Pa}
  2.5,                                    ! Wind Speed {m/s}
  140,                                    ! Wind Direction {deg}
  0,                                      ! Sky Clearness
  0,                                      ! Rain Indicator
  0,                                      ! Snow Indicator
  21,                                     ! Day of Month
  12,                                     ! Month
  WinterDesignDay,                        ! Day Type
  0,                                      ! Daylight Saving Time Indicator
  Wetbulb,                                ! Humidity Indicating Type
  ,                                       ! Humidity Indicating Day Schedule Name
  DefaultMultipliers,                     ! Dry-Bulb Temperature Range Modifier Type
  ,                                       ! Dry-Bulb Temperature Range Modifier Schedule Name
  ASHRAEClearSky;                         ! Solar Model Indicator

OS:ComponentData,
  {2d67a37f-be4b-4a90-8c92-f1b8ab8c268d}, ! Handle
  Component Data 1,                       ! Name
  {ae8c6333-cb1a-48ce-99bb-7a3f50e9417c}, ! UUID
  {71cccc17-fce9-4444-b4fe-e339c1f3242c}, ! Version UUID
  1366306320,                             ! Creation Timestamp
  1366306320,                             ! Version Timestamp
  {183411bd-c537-4811-bc76-6f7d55eeecbe}; ! Name of Object 1

