
OS:Version,
  {5452a3b7-b65c-4b8b-8889-ff4bf06c18a8}, ! Handle
  0.9.3;                                  ! Version Identifier

OS:SizingPeriod:DesignDay,
  {fa8a3430-71c0-4e05-804d-d699f120c548}, ! Handle
  Tampa/Int'l Airport Ann Htg Wind 99% Condns WS=>MCDB, ! Name
  14.7,                                   ! Maximum Dry-Bulb Temperature {C}
  0,                                      ! Daily Dry-Bulb Temperature Range {deltaC}
  14.7,                                   ! Humidity Indicating Conditions at Maximum Dry-Bulb {BasedOnField A3}
  101289,                                 ! Barometric Pressure {Pa}
  8.4,                                    ! Wind Speed {m/s}
  10,                                     ! Wind Direction {deg}
  0,                                      ! Sky Clearness
  0,                                      ! Rain Indicator
  0,                                      ! Snow Indicator
  21,                                     ! Day of Month
  1,                                      ! Month
  WinterDesignDay,                        ! Day Type
  0,                                      ! Daylight Saving Time Indicator
  Wetbulb,                                ! Humidity Indicating Type
  ,                                       ! Humidity Indicating Day Schedule Name
  DefaultMultipliers,                     ! Dry-Bulb Temperature Range Modifier Type
  ,                                       ! Dry-Bulb Temperature Range Modifier Schedule Name
  ASHRAEClearSky;                         ! Solar Model Indicator

OS:ComponentData,
  {79601ef7-7c4f-42f1-acb6-555fb0beb388}, ! Handle
  Component Data 1,                       ! Name
  {7dd5f0f9-32c5-4776-9bbc-c1baff67ba85}, ! UUID
  {b0e4bdcb-512c-4fad-bbf2-fb5749b5526c}, ! Version UUID
  1366306932,                             ! Creation Timestamp
  1366306932,                             ! Version Timestamp
  {fa8a3430-71c0-4e05-804d-d699f120c548}; ! Name of Object 1

