
OS:Version,
  {10e4a390-578f-4485-902b-fb3318f69f54}, ! Handle
  0.9.3;                                  ! Version Identifier

OS:SizingPeriod:DesignDay,
  {e1f97f47-fdd1-40de-b70f-9d090ff8a692}, ! Handle
  Oscoda Wurtsmith Afb Ann Htg 99% Condns DB, ! Name
  -16.3,                                  ! Maximum Dry-Bulb Temperature {C}
  0,                                      ! Daily Dry-Bulb Temperature Range {deltaC}
  -16.3,                                  ! Humidity Indicating Conditions at Maximum Dry-Bulb {BasedOnField A3}
  99087,                                  ! Barometric Pressure {Pa}
  2.6,                                    ! Wind Speed {m/s}
  230,                                    ! Wind Direction {deg}
  0,                                      ! Sky Clearness
  0,                                      ! Rain Indicator
  0,                                      ! Snow Indicator
  21,                                     ! Day of Month
  1,                                      ! Month
  WinterDesignDay,                        ! Day Type
  0,                                      ! Daylight Saving Time Indicator
  Wetbulb,                                ! Humidity Indicating Type
  ,                                       ! Humidity Indicating Day Schedule Name
  DefaultMultipliers,                     ! Dry-Bulb Temperature Range Modifier Type
  ,                                       ! Dry-Bulb Temperature Range Modifier Schedule Name
  ASHRAEClearSky;                         ! Solar Model Indicator

OS:ComponentData,
  {83b50ec2-5386-4d69-9142-465dfd015a34}, ! Handle
  Component Data 1,                       ! Name
  {703830fb-4c38-46d9-8e62-0538eb084ad8}, ! UUID
  {3ee19400-3c52-46d5-8359-85e538548800}, ! Version UUID
  1366308083,                             ! Creation Timestamp
  1366308083,                             ! Version Timestamp
  {e1f97f47-fdd1-40de-b70f-9d090ff8a692}; ! Name of Object 1

