
OS:Version,
  {0990daa6-fad3-427c-9b0c-c37221c1a0b8}, ! Handle
  0.9.3;                                  ! Version Identifier

OS:SizingPeriod:DesignDay,
  {e59e720d-09ee-454f-93bd-c9d0bf76cfb6}, ! Handle
  Sheridan County Arpt Ann Hum_n 99.6% Condns DP=>MCDB, ! Name
  -23.7,                                  ! Maximum Dry-Bulb Temperature {C}
  0,                                      ! Daily Dry-Bulb Temperature Range {deltaC}
  -29.4,                                  ! Humidity Indicating Conditions at Maximum Dry-Bulb {BasedOnField A3}
  87630,                                  ! Barometric Pressure {Pa}
  2,                                      ! Wind Speed {m/s}
  280,                                    ! Wind Direction {deg}
  0,                                      ! Sky Clearness
  0,                                      ! Rain Indicator
  0,                                      ! Snow Indicator
  21,                                     ! Day of Month
  12,                                     ! Month
  WinterDesignDay,                        ! Day Type
  0,                                      ! Daylight Saving Time Indicator
  Dewpoint,                               ! Humidity Indicating Type
  ,                                       ! Humidity Indicating Day Schedule Name
  DefaultMultipliers,                     ! Dry-Bulb Temperature Range Modifier Type
  ,                                       ! Dry-Bulb Temperature Range Modifier Schedule Name
  ASHRAEClearSky;                         ! Solar Model Indicator

OS:ComponentData,
  {11b75bb9-0aea-4a1c-b0e6-b6097250f670}, ! Handle
  Component Data 1,                       ! Name
  {fbbbedd7-64db-4a19-b511-27b91ed12117}, ! UUID
  {7ebc914e-7a6f-457e-9bfa-03bc1e7fcb90}, ! Version UUID
  1366311785,                             ! Creation Timestamp
  1366311785,                             ! Version Timestamp
  {e59e720d-09ee-454f-93bd-c9d0bf76cfb6}; ! Name of Object 1

