
OS:Version,
  {b6eff5f6-eb3f-44a5-88f2-8fd18f72e7a3}, ! Handle
  0.9.3;                                  ! Version Identifier

OS:SizingPeriod:DesignDay,
  {f04e5fca-f272-477a-b518-59f8d6f04903}, ! Handle
  Waco Regional Ap Ann Clg 2% Condns DB=>MWB, ! Name
  36.1,                                   ! Maximum Dry-Bulb Temperature {C}
  11.9,                                   ! Daily Dry-Bulb Temperature Range {deltaC}
  24.1,                                   ! Humidity Indicating Conditions at Maximum Dry-Bulb {BasedOnField A3}
  99512,                                  ! Barometric Pressure {Pa}
  4.9,                                    ! Wind Speed {m/s}
  180,                                    ! Wind Direction {deg}
  0,                                      ! Sky Clearness
  0,                                      ! Rain Indicator
  0,                                      ! Snow Indicator
  21,                                     ! Day of Month
  7,                                      ! Month
  SummerDesignDay,                        ! Day Type
  0,                                      ! Daylight Saving Time Indicator
  Wetbulb,                                ! Humidity Indicating Type
  ,                                       ! Humidity Indicating Day Schedule Name
  DefaultMultipliers,                     ! Dry-Bulb Temperature Range Modifier Type
  ,                                       ! Dry-Bulb Temperature Range Modifier Schedule Name
  ASHRAETau,                              ! Solar Model Indicator
  ,                                       ! Beam Solar Day Schedule Name
  ,                                       ! Diffuse Solar Day Schedule Name
  0.46,                                   ! ASHRAE Taub {dimensionless}
  2.098;                                  ! ASHRAE Taud {dimensionless}

OS:ComponentData,
  {ce26ac24-b615-46ea-a823-ac547b247a01}, ! Handle
  Component Data 1,                       ! Name
  {d4d5f1dd-e717-44c2-a668-1e39302b4a84}, ! UUID
  {098a071e-fe41-4831-b11e-f4dd46546835}, ! Version UUID
  1366310924,                             ! Creation Timestamp
  1366310924,                             ! Version Timestamp
  {f04e5fca-f272-477a-b518-59f8d6f04903}; ! Name of Object 1

