
OS:Version,
  {645b85c0-fee5-46d5-89ec-9279b7c26574}, ! Handle
  0.9.3;                                  ! Version Identifier

OS:SizingPeriod:DesignDay,
  {e986fb26-e385-4540-8c38-92361fd7abd9}, ! Handle
  Wilmington International Arpt Ann Hum_n 99% Condns DP=>MCDB, ! Name
  2.1,                                    ! Maximum Dry-Bulb Temperature {C}
  0,                                      ! Daily Dry-Bulb Temperature Range {deltaC}
  -11.3,                                  ! Humidity Indicating Conditions at Maximum Dry-Bulb {BasedOnField A3}
  101217,                                 ! Barometric Pressure {Pa}
  2.6,                                    ! Wind Speed {m/s}
  0,                                      ! Wind Direction {deg}
  0,                                      ! Sky Clearness
  0,                                      ! Rain Indicator
  0,                                      ! Snow Indicator
  21,                                     ! Day of Month
  1,                                      ! Month
  WinterDesignDay,                        ! Day Type
  0,                                      ! Daylight Saving Time Indicator
  Dewpoint,                               ! Humidity Indicating Type
  ,                                       ! Humidity Indicating Day Schedule Name
  DefaultMultipliers,                     ! Dry-Bulb Temperature Range Modifier Type
  ,                                       ! Dry-Bulb Temperature Range Modifier Schedule Name
  ASHRAEClearSky;                         ! Solar Model Indicator

OS:ComponentData,
  {b9dc5e3a-e2db-42e3-9c61-3717b3f27bf9}, ! Handle
  Component Data 1,                       ! Name
  {47f2b9d8-e995-47ee-a0cf-52b638dbed87}, ! UUID
  {ec4ec97d-07e3-4576-b01f-fbf16e9a04a4}, ! Version UUID
  1366308989,                             ! Creation Timestamp
  1366308989,                             ! Version Timestamp
  {e986fb26-e385-4540-8c38-92361fd7abd9}; ! Name of Object 1

