
OS:Version,
  {bf9e1610-e902-4eec-9b80-915be77b6829}, ! Handle
  0.9.3;                                  ! Version Identifier

OS:SizingPeriod:DesignDay,
  {683e6417-68f3-4367-8e95-02e0d6f74da8}, ! Handle
  Menominee  Awos Ann Clg 2% Condns DP=>MDB, ! Name
  23.8,                                   ! Maximum Dry-Bulb Temperature {C}
  10.4,                                   ! Daily Dry-Bulb Temperature Range {deltaC}
  17.8,                                   ! Humidity Indicating Conditions at Maximum Dry-Bulb {BasedOnField A3}
  99051,                                  ! Barometric Pressure {Pa}
  4.6,                                    ! Wind Speed {m/s}
  230,                                    ! Wind Direction {deg}
  0,                                      ! Sky Clearness
  0,                                      ! Rain Indicator
  0,                                      ! Snow Indicator
  21,                                     ! Day of Month
  7,                                      ! Month
  SummerDesignDay,                        ! Day Type
  0,                                      ! Daylight Saving Time Indicator
  Dewpoint,                               ! Humidity Indicating Type
  ,                                       ! Humidity Indicating Day Schedule Name
  DefaultMultipliers,                     ! Dry-Bulb Temperature Range Modifier Type
  ,                                       ! Dry-Bulb Temperature Range Modifier Schedule Name
  ASHRAETau,                              ! Solar Model Indicator
  ,                                       ! Beam Solar Day Schedule Name
  ,                                       ! Diffuse Solar Day Schedule Name
  0.425,                                  ! ASHRAE Taub {dimensionless}
  2.15;                                   ! ASHRAE Taud {dimensionless}

OS:ComponentData,
  {d8603355-b803-41f9-b6f0-47247ef3c5bd}, ! Handle
  Component Data 1,                       ! Name
  {aed81042-8545-453b-93e9-ae3ef729387f}, ! UUID
  {3997ace9-c4b4-4445-ad6f-b4371850c7af}, ! Version UUID
  1366308065,                             ! Creation Timestamp
  1366308065,                             ! Version Timestamp
  {683e6417-68f3-4367-8e95-02e0d6f74da8}; ! Name of Object 1

