
OS:Version,
  {cb8d80ef-e7ac-475c-b92d-a7e74bf2db26}, ! Handle
  0.9.3;                                  ! Version Identifier

OS:SizingPeriod:DesignDay,
  {7583c141-1d12-4205-9594-aedab1537ee9}, ! Handle
  PEORIA Ann Clg 1% Condns WB=>MDB,       ! Name
  30.6,                                   ! Maximum Dry-Bulb Temperature {C}
  10.6,                                   ! Daily Dry-Bulb Temperature Range {deltaC}
  25.4,                                   ! Humidity Indicating Conditions at Maximum Dry-Bulb {BasedOnField A3}
  98957,                                  ! Barometric Pressure {Pa}
  4.8,                                    ! Wind Speed {m/s}
  220,                                    ! Wind Direction {deg}
  0,                                      ! Sky Clearness
  0,                                      ! Rain Indicator
  0,                                      ! Snow Indicator
  21,                                     ! Day of Month
  7,                                      ! Month
  SummerDesignDay,                        ! Day Type
  0,                                      ! Daylight Saving Time Indicator
  Wetbulb,                                ! Humidity Indicating Type
  ,                                       ! Humidity Indicating Day Schedule Name
  DefaultMultipliers,                     ! Dry-Bulb Temperature Range Modifier Type
  ,                                       ! Dry-Bulb Temperature Range Modifier Schedule Name
  ASHRAETau,                              ! Solar Model Indicator
  ,                                       ! Beam Solar Day Schedule Name
  ,                                       ! Diffuse Solar Day Schedule Name
  0.455,                                  ! ASHRAE Taub {dimensionless}
  2.051;                                  ! ASHRAE Taud {dimensionless}

OS:ComponentData,
  {760b078a-590d-4aa9-bd85-b2b551ea7229}, ! Handle
  Component Data 1,                       ! Name
  {43d33e8a-11d0-4fdb-853b-f53cf9639449}, ! UUID
  {adb17e7c-64b6-41a4-87fb-b2419386e29a}, ! Version UUID
  1366307385,                             ! Creation Timestamp
  1366307385,                             ! Version Timestamp
  {7583c141-1d12-4205-9594-aedab1537ee9}; ! Name of Object 1

