
OS:Version,
  {573df9cc-37ab-4aeb-a0e8-d8bbc55d030a}, ! Handle
  0.9.3;                                  ! Version Identifier

OS:SizingPeriod:DesignDay,
  {9d76a192-5575-4aad-8f1b-f7b964d73e52}, ! Handle
  Tulsa Ann Clg 2% Condns WB=>MDB,        ! Name
  32.2,                                   ! Maximum Dry-Bulb Temperature {C}
  10.5,                                   ! Daily Dry-Bulb Temperature Range {deltaC}
  25.1,                                   ! Humidity Indicating Conditions at Maximum Dry-Bulb {BasedOnField A3}
  98875,                                  ! Barometric Pressure {Pa}
  4.9,                                    ! Wind Speed {m/s}
  190,                                    ! Wind Direction {deg}
  0,                                      ! Sky Clearness
  0,                                      ! Rain Indicator
  0,                                      ! Snow Indicator
  21,                                     ! Day of Month
  7,                                      ! Month
  SummerDesignDay,                        ! Day Type
  0,                                      ! Daylight Saving Time Indicator
  Wetbulb,                                ! Humidity Indicating Type
  ,                                       ! Humidity Indicating Day Schedule Name
  DefaultMultipliers,                     ! Dry-Bulb Temperature Range Modifier Type
  ,                                       ! Dry-Bulb Temperature Range Modifier Schedule Name
  ASHRAETau,                              ! Solar Model Indicator
  ,                                       ! Beam Solar Day Schedule Name
  ,                                       ! Diffuse Solar Day Schedule Name
  0.453,                                  ! ASHRAE Taub {dimensionless}
  2.105;                                  ! ASHRAE Taud {dimensionless}

OS:ComponentData,
  {e027e9e3-5aae-45e4-8bfb-eaf49a975462}, ! Handle
  Component Data 1,                       ! Name
  {573ea174-bae8-4e18-a627-959555310aba}, ! UUID
  {3e1fcf2a-adc7-4bea-9003-d14c6761ea74}, ! Version UUID
  1366309954,                             ! Creation Timestamp
  1366309954,                             ! Version Timestamp
  {9d76a192-5575-4aad-8f1b-f7b964d73e52}; ! Name of Object 1

