
OS:Version,
  {506d7549-ebe8-46fc-a30d-f71da211683c}, ! Handle
  0.9.3;                                  ! Version Identifier

OS:SizingPeriod:DesignDay,
  {0e3d5061-1ad9-4589-b1ec-2056dbf9e554}, ! Handle
  Salina Municipal Ap Ann Clg .4% Condns WB=>MDB, ! Name
  33.6,                                   ! Maximum Dry-Bulb Temperature {C}
  12.6,                                   ! Daily Dry-Bulb Temperature Range {deltaC}
  25.2,                                   ! Humidity Indicating Conditions at Maximum Dry-Bulb {BasedOnField A3}
  96785,                                  ! Barometric Pressure {Pa}
  6.9,                                    ! Wind Speed {m/s}
  190,                                    ! Wind Direction {deg}
  0,                                      ! Sky Clearness
  0,                                      ! Rain Indicator
  0,                                      ! Snow Indicator
  21,                                     ! Day of Month
  7,                                      ! Month
  SummerDesignDay,                        ! Day Type
  0,                                      ! Daylight Saving Time Indicator
  Wetbulb,                                ! Humidity Indicating Type
  ,                                       ! Humidity Indicating Day Schedule Name
  DefaultMultipliers,                     ! Dry-Bulb Temperature Range Modifier Type
  ,                                       ! Dry-Bulb Temperature Range Modifier Schedule Name
  ASHRAETau,                              ! Solar Model Indicator
  ,                                       ! Beam Solar Day Schedule Name
  ,                                       ! Diffuse Solar Day Schedule Name
  0.42,                                   ! ASHRAE Taub {dimensionless}
  2.193;                                  ! ASHRAE Taud {dimensionless}

OS:ComponentData,
  {78bf5251-ec16-4fdf-835a-63b75958c5af}, ! Handle
  Component Data 1,                       ! Name
  {e3830fd1-61b8-40f4-9975-5cc9f5ad4d60}, ! UUID
  {6da80ed0-e97c-4aac-a9f4-af0d9c2b78dc}, ! Version UUID
  1366307575,                             ! Creation Timestamp
  1366307575,                             ! Version Timestamp
  {0e3d5061-1ad9-4589-b1ec-2056dbf9e554}; ! Name of Object 1

