
OS:Version,
  {a3c4d7f8-3062-49ca-9500-ff0df9759149}, ! Handle
  0.9.3;                                  ! Version Identifier

OS:SizingPeriod:DesignDay,
  {0fcd080b-f94a-4549-bcb8-89bfe677f833}, ! Handle
  PHOENIX Ann Clg .4% Condns Enth=>MDB,   ! Name
  35.3,                                   ! Maximum Dry-Bulb Temperature {C}
  12,                                     ! Daily Dry-Bulb Temperature Range {deltaC}
  75600,                                  ! Humidity Indicating Conditions at Maximum Dry-Bulb {BasedOnField A3}
  97318,                                  ! Barometric Pressure {Pa}
  4.1,                                    ! Wind Speed {m/s}
  260,                                    ! Wind Direction {deg}
  0,                                      ! Sky Clearness
  0,                                      ! Rain Indicator
  0,                                      ! Snow Indicator
  21,                                     ! Day of Month
  7,                                      ! Month
  SummerDesignDay,                        ! Day Type
  0,                                      ! Daylight Saving Time Indicator
  Enthalpy,                               ! Humidity Indicating Type
  ,                                       ! Humidity Indicating Day Schedule Name
  DefaultMultipliers,                     ! Dry-Bulb Temperature Range Modifier Type
  ,                                       ! Dry-Bulb Temperature Range Modifier Schedule Name
  ASHRAETau,                              ! Solar Model Indicator
  ,                                       ! Beam Solar Day Schedule Name
  ,                                       ! Diffuse Solar Day Schedule Name
  0.588,                                  ! ASHRAE Taub {dimensionless}
  1.653;                                  ! ASHRAE Taud {dimensionless}

OS:ComponentData,
  {a6343464-0a9f-466a-bdcb-0570f01118e8}, ! Handle
  Component Data 1,                       ! Name
  {2181aff0-2b17-4512-b270-6237a899e865}, ! UUID
  {9658d9c2-9423-4c8e-a55f-eed5ec8a489d}, ! Version UUID
  1366306298,                             ! Creation Timestamp
  1366306298,                             ! Version Timestamp
  {0fcd080b-f94a-4549-bcb8-89bfe677f833}; ! Name of Object 1

