
OS:Version,
  {aa8461fc-30a4-4f89-92d3-afbb9103e191}, ! Handle
  0.9.3;                                  ! Version Identifier

OS:SizingPeriod:DesignDay,
  {884554e9-3ad5-4210-be30-be2cb426a08c}, ! Handle
  PEORIA Ann Htg 99% Condns DB,           ! Name
  -16.5,                                  ! Maximum Dry-Bulb Temperature {C}
  0,                                      ! Daily Dry-Bulb Temperature Range {deltaC}
  -16.5,                                  ! Humidity Indicating Conditions at Maximum Dry-Bulb {BasedOnField A3}
  98957,                                  ! Barometric Pressure {Pa}
  4,                                      ! Wind Speed {m/s}
  280,                                    ! Wind Direction {deg}
  0,                                      ! Sky Clearness
  0,                                      ! Rain Indicator
  0,                                      ! Snow Indicator
  21,                                     ! Day of Month
  1,                                      ! Month
  WinterDesignDay,                        ! Day Type
  0,                                      ! Daylight Saving Time Indicator
  Wetbulb,                                ! Humidity Indicating Type
  ,                                       ! Humidity Indicating Day Schedule Name
  DefaultMultipliers,                     ! Dry-Bulb Temperature Range Modifier Type
  ,                                       ! Dry-Bulb Temperature Range Modifier Schedule Name
  ASHRAEClearSky;                         ! Solar Model Indicator

OS:ComponentData,
  {5e8432c3-9757-451e-8dbd-49fcf45aef1e}, ! Handle
  Component Data 1,                       ! Name
  {a3a969f1-94c1-4995-9b2a-2cbc0ab228cc}, ! UUID
  {e63c6ddf-2a72-4ac7-8468-54c8e3693e8b}, ! Version UUID
  1366307383,                             ! Creation Timestamp
  1366307383,                             ! Version Timestamp
  {884554e9-3ad5-4210-be30-be2cb426a08c}; ! Name of Object 1

