
OS:Version,
  {c90a1220-ae7b-416f-af2c-2fbf80c0d45b}, ! Handle
  0.9.3;                                  ! Version Identifier

OS:SizingPeriod:DesignDay,
  {135e5203-579c-4757-9d05-24b4aad4399c}, ! Handle
  TOPEKA Ann Hum_n 99.6% Condns DP=>MCDB, ! Name
  -16.7,                                  ! Maximum Dry-Bulb Temperature {C}
  0,                                      ! Daily Dry-Bulb Temperature Range {deltaC}
  -23.1,                                  ! Humidity Indicating Conditions at Maximum Dry-Bulb {BasedOnField A3}
  98123,                                  ! Barometric Pressure {Pa}
  3.6,                                    ! Wind Speed {m/s}
  320,                                    ! Wind Direction {deg}
  0,                                      ! Sky Clearness
  0,                                      ! Rain Indicator
  0,                                      ! Snow Indicator
  21,                                     ! Day of Month
  1,                                      ! Month
  WinterDesignDay,                        ! Day Type
  0,                                      ! Daylight Saving Time Indicator
  Dewpoint,                               ! Humidity Indicating Type
  ,                                       ! Humidity Indicating Day Schedule Name
  DefaultMultipliers,                     ! Dry-Bulb Temperature Range Modifier Type
  ,                                       ! Dry-Bulb Temperature Range Modifier Schedule Name
  ASHRAEClearSky;                         ! Solar Model Indicator

OS:ComponentData,
  {fa2574e3-02f2-470b-b6b3-36d6951f07cc}, ! Handle
  Component Data 1,                       ! Name
  {41c80fc0-4c04-4f47-b120-b01f4a7b26e8}, ! UUID
  {82f203ad-6f44-41b7-bf18-31008d5a3dca}, ! Version UUID
  1366307591,                             ! Creation Timestamp
  1366307591,                             ! Version Timestamp
  {135e5203-579c-4757-9d05-24b4aad4399c}; ! Name of Object 1

