
OS:Version,
  {79e0b160-7f2c-477f-b23c-18aa064d5f96}, ! Handle
  0.9.3;                                  ! Version Identifier

OS:SizingPeriod:DesignDay,
  {121678fd-4435-43b6-8600-a7dd262c9b80}, ! Handle
  Tonopah Airport Ann Hum_n 99.6% Condns DP=>MCDB, ! Name
  -2.7,                                   ! Maximum Dry-Bulb Temperature {C}
  0,                                      ! Daily Dry-Bulb Temperature Range {deltaC}
  -22.3,                                  ! Humidity Indicating Conditions at Maximum Dry-Bulb {BasedOnField A3}
  82960,                                  ! Barometric Pressure {Pa}
  3.9,                                    ! Wind Speed {m/s}
  350,                                    ! Wind Direction {deg}
  0,                                      ! Sky Clearness
  0,                                      ! Rain Indicator
  0,                                      ! Snow Indicator
  21,                                     ! Day of Month
  12,                                     ! Month
  WinterDesignDay,                        ! Day Type
  0,                                      ! Daylight Saving Time Indicator
  Dewpoint,                               ! Humidity Indicating Type
  ,                                       ! Humidity Indicating Day Schedule Name
  DefaultMultipliers,                     ! Dry-Bulb Temperature Range Modifier Type
  ,                                       ! Dry-Bulb Temperature Range Modifier Schedule Name
  ASHRAEClearSky;                         ! Solar Model Indicator

OS:ComponentData,
  {531e90c3-27fc-434a-b8b9-cfa05ed379e5}, ! Handle
  Component Data 1,                       ! Name
  {413329ac-1ed0-4671-9268-4155e3b2009b}, ! UUID
  {c906a7c0-fbb0-495a-b838-65bc7a14dc59}, ! Version UUID
  1366309554,                             ! Creation Timestamp
  1366309554,                             ! Version Timestamp
  {121678fd-4435-43b6-8600-a7dd262c9b80}; ! Name of Object 1

