
OS:Version,
  {8fbfaf1b-f7ba-4a3d-abdd-9ac87bd36c6d}, ! Handle
  0.9.3;                                  ! Version Identifier

OS:SizingPeriod:DesignDay,
  {50a35861-6436-47e4-b744-65eddbe52a3a}, ! Handle
  Tonopah Airport Ann Clg 2% Condns WB=>MDB, ! Name
  28.9,                                   ! Maximum Dry-Bulb Temperature {C}
  18.2,                                   ! Daily Dry-Bulb Temperature Range {deltaC}
  15.7,                                   ! Humidity Indicating Conditions at Maximum Dry-Bulb {BasedOnField A3}
  82960,                                  ! Barometric Pressure {Pa}
  5.1,                                    ! Wind Speed {m/s}
  180,                                    ! Wind Direction {deg}
  0,                                      ! Sky Clearness
  0,                                      ! Rain Indicator
  0,                                      ! Snow Indicator
  21,                                     ! Day of Month
  7,                                      ! Month
  SummerDesignDay,                        ! Day Type
  0,                                      ! Daylight Saving Time Indicator
  Wetbulb,                                ! Humidity Indicating Type
  ,                                       ! Humidity Indicating Day Schedule Name
  DefaultMultipliers,                     ! Dry-Bulb Temperature Range Modifier Type
  ,                                       ! Dry-Bulb Temperature Range Modifier Schedule Name
  ASHRAETau,                              ! Solar Model Indicator
  ,                                       ! Beam Solar Day Schedule Name
  ,                                       ! Diffuse Solar Day Schedule Name
  0.483,                                  ! ASHRAE Taub {dimensionless}
  1.772;                                  ! ASHRAE Taud {dimensionless}

OS:ComponentData,
  {2e50329d-30cb-4eab-a019-897837cd1733}, ! Handle
  Component Data 1,                       ! Name
  {2c1fcd41-df61-41c7-880b-83eb12e32f5b}, ! UUID
  {21345b15-bb2d-4b09-8944-a784cdfdb516}, ! Version UUID
  1366309555,                             ! Creation Timestamp
  1366309555,                             ! Version Timestamp
  {50a35861-6436-47e4-b744-65eddbe52a3a}; ! Name of Object 1

