
OS:Version,
  {60f86ae2-e216-4b38-8a24-7218d3fe6910}, ! Handle
  0.9.3;                                  ! Version Identifier

OS:SizingPeriod:DesignDay,
  {82810448-c383-4c37-ba2b-bc9818c2b673}, ! Handle
  Mason City Municipal Arpt Ann Clg 1% Condns DP=>MDB, ! Name
  27.5,                                   ! Maximum Dry-Bulb Temperature {C}
  11.5,                                   ! Daily Dry-Bulb Temperature Range {deltaC}
  23,                                     ! Humidity Indicating Conditions at Maximum Dry-Bulb {BasedOnField A3}
  97028,                                  ! Barometric Pressure {Pa}
  6.4,                                    ! Wind Speed {m/s}
  200,                                    ! Wind Direction {deg}
  0,                                      ! Sky Clearness
  0,                                      ! Rain Indicator
  0,                                      ! Snow Indicator
  21,                                     ! Day of Month
  7,                                      ! Month
  SummerDesignDay,                        ! Day Type
  0,                                      ! Daylight Saving Time Indicator
  Dewpoint,                               ! Humidity Indicating Type
  ,                                       ! Humidity Indicating Day Schedule Name
  DefaultMultipliers,                     ! Dry-Bulb Temperature Range Modifier Type
  ,                                       ! Dry-Bulb Temperature Range Modifier Schedule Name
  ASHRAETau,                              ! Solar Model Indicator
  ,                                       ! Beam Solar Day Schedule Name
  ,                                       ! Diffuse Solar Day Schedule Name
  0.409,                                  ! ASHRAE Taub {dimensionless}
  2.21;                                   ! ASHRAE Taud {dimensionless}

OS:ComponentData,
  {373daa70-b572-4ec5-87e9-90abb35aa242}, ! Handle
  Component Data 1,                       ! Name
  {0558fe8f-6ab7-4b7f-8689-25eaf6379bf3}, ! UUID
  {6a91f1cb-8155-4999-aa85-0e82f1fa82d3}, ! Version UUID
  1366307218,                             ! Creation Timestamp
  1366307218,                             ! Version Timestamp
  {82810448-c383-4c37-ba2b-bc9818c2b673}; ! Name of Object 1

