
OS:Version,
  {c19cb0e6-0b7e-410f-a5f3-1bf3d9ac66a5}, ! Handle
  0.9.3;                                  ! Version Identifier

OS:SizingPeriod:DesignDay,
  {22e46dc4-25b7-41d0-8f24-d727bba02b1c}, ! Handle
  Winston Salem Reynolds Ap Ann Clg 2% Condns WB=>MDB, ! Name
  28.9,                                   ! Maximum Dry-Bulb Temperature {C}
  9.6,                                    ! Daily Dry-Bulb Temperature Range {deltaC}
  23.8,                                   ! Humidity Indicating Conditions at Maximum Dry-Bulb {BasedOnField A3}
  97819,                                  ! Barometric Pressure {Pa}
  3.3,                                    ! Wind Speed {m/s}
  240,                                    ! Wind Direction {deg}
  0,                                      ! Sky Clearness
  0,                                      ! Rain Indicator
  0,                                      ! Snow Indicator
  21,                                     ! Day of Month
  7,                                      ! Month
  SummerDesignDay,                        ! Day Type
  0,                                      ! Daylight Saving Time Indicator
  Wetbulb,                                ! Humidity Indicating Type
  ,                                       ! Humidity Indicating Day Schedule Name
  DefaultMultipliers,                     ! Dry-Bulb Temperature Range Modifier Type
  ,                                       ! Dry-Bulb Temperature Range Modifier Schedule Name
  ASHRAETau,                              ! Solar Model Indicator
  ,                                       ! Beam Solar Day Schedule Name
  ,                                       ! Diffuse Solar Day Schedule Name
  0.557,                                  ! ASHRAE Taub {dimensionless}
  1.754;                                  ! ASHRAE Taud {dimensionless}

OS:ComponentData,
  {c09958e9-5f75-4a5d-85ee-561f85aafc92}, ! Handle
  Component Data 1,                       ! Name
  {50a083c3-1729-421a-9ad4-d08737c65c49}, ! UUID
  {3b647250-9197-4114-8cf9-6fd09dec2565}, ! Version UUID
  1366308994,                             ! Creation Timestamp
  1366308994,                             ! Version Timestamp
  {22e46dc4-25b7-41d0-8f24-d727bba02b1c}; ! Name of Object 1

