
OS:Version,
  {cd2e247e-9355-457e-aeed-a79da7c831b4}, ! Handle
  0.9.3;                                  ! Version Identifier

OS:SizingPeriod:DesignDay,
  {43ec08a9-95ef-4f29-817d-a7af843d6504}, ! Handle
  Phillips Price Co Ann Clg 2% Condns WB=>MDB, ! Name
  25.1,                                   ! Maximum Dry-Bulb Temperature {C}
  11.7,                                   ! Daily Dry-Bulb Temperature Range {deltaC}
  21.3,                                   ! Humidity Indicating Conditions at Maximum Dry-Bulb {BasedOnField A3}
  96046,                                  ! Barometric Pressure {Pa}
  4.1,                                    ! Wind Speed {m/s}
  200,                                    ! Wind Direction {deg}
  0,                                      ! Sky Clearness
  0,                                      ! Rain Indicator
  0,                                      ! Snow Indicator
  21,                                     ! Day of Month
  7,                                      ! Month
  SummerDesignDay,                        ! Day Type
  0,                                      ! Daylight Saving Time Indicator
  Wetbulb,                                ! Humidity Indicating Type
  ,                                       ! Humidity Indicating Day Schedule Name
  DefaultMultipliers,                     ! Dry-Bulb Temperature Range Modifier Type
  ,                                       ! Dry-Bulb Temperature Range Modifier Schedule Name
  ASHRAETau,                              ! Solar Model Indicator
  ,                                       ! Beam Solar Day Schedule Name
  ,                                       ! Diffuse Solar Day Schedule Name
  0.4,                                    ! ASHRAE Taub {dimensionless}
  2.208;                                  ! ASHRAE Taud {dimensionless}

OS:ComponentData,
  {5c12d4da-12d0-4468-b26a-bb812fa9ee30}, ! Handle
  Component Data 1,                       ! Name
  {1ddd6a8a-1698-49b2-a214-5e1f05f9ccb3}, ! UUID
  {a07304a0-ff36-4d5f-b4ce-becdb8f55b7e}, ! Version UUID
  1366311576,                             ! Creation Timestamp
  1366311576,                             ! Version Timestamp
  {43ec08a9-95ef-4f29-817d-a7af843d6504}; ! Name of Object 1

