
OS:Version,
  {90c281bd-15f7-44eb-9f9c-5563d31e117b}, ! Handle
  0.9.3;                                  ! Version Identifier

OS:SizingPeriod:DesignDay,
  {84b01f54-5027-4b7a-8818-7fa80889e8a9}, ! Handle
  New York City/La Guard Ann Clg 2% Condns DB=>MWB, ! Name
  30.3,                                   ! Maximum Dry-Bulb Temperature {C}
  7.7,                                    ! Daily Dry-Bulb Temperature Range {deltaC}
  22.2,                                   ! Humidity Indicating Conditions at Maximum Dry-Bulb {BasedOnField A3}
  101289,                                 ! Barometric Pressure {Pa}
  5.6,                                    ! Wind Speed {m/s}
  270,                                    ! Wind Direction {deg}
  0,                                      ! Sky Clearness
  0,                                      ! Rain Indicator
  0,                                      ! Snow Indicator
  21,                                     ! Day of Month
  7,                                      ! Month
  SummerDesignDay,                        ! Day Type
  0,                                      ! Daylight Saving Time Indicator
  Wetbulb,                                ! Humidity Indicating Type
  ,                                       ! Humidity Indicating Day Schedule Name
  DefaultMultipliers,                     ! Dry-Bulb Temperature Range Modifier Type
  ,                                       ! Dry-Bulb Temperature Range Modifier Schedule Name
  ASHRAETau,                              ! Solar Model Indicator
  ,                                       ! Beam Solar Day Schedule Name
  ,                                       ! Diffuse Solar Day Schedule Name
  0.532,                                  ! ASHRAE Taub {dimensionless}
  1.821;                                  ! ASHRAE Taud {dimensionless}

OS:ComponentData,
  {9a8cf2b2-ce8b-4b87-950a-2444f9532388}, ! Handle
  Component Data 1,                       ! Name
  {c5abd2dd-da82-4bc0-9e1e-5be89102ed5e}, ! UUID
  {8fa4414e-54a0-499f-8511-a85be21f5f05}, ! Version UUID
  1366309670,                             ! Creation Timestamp
  1366309670,                             ! Version Timestamp
  {84b01f54-5027-4b7a-8818-7fa80889e8a9}; ! Name of Object 1

