
OS:Version,
  {9392b2d5-c5ae-4ed1-b4c7-4a7ad6892794}, ! Handle
  0.9.3;                                  ! Version Identifier

OS:SizingPeriod:DesignDay,
  {ae0622c4-0f1c-42b1-b8f9-7b98976912f7}, ! Handle
  Mcallen Miller Intl Ap  Edinb Ann Clg 1% Condns DB=>MWB, ! Name
  37.1,                                   ! Maximum Dry-Bulb Temperature {C}
  11.1,                                   ! Daily Dry-Bulb Temperature Range {deltaC}
  24.8,                                   ! Humidity Indicating Conditions at Maximum Dry-Bulb {BasedOnField A3}
  100965,                                 ! Barometric Pressure {Pa}
  6.6,                                    ! Wind Speed {m/s}
  140,                                    ! Wind Direction {deg}
  0,                                      ! Sky Clearness
  0,                                      ! Rain Indicator
  0,                                      ! Snow Indicator
  21,                                     ! Day of Month
  8,                                      ! Month
  SummerDesignDay,                        ! Day Type
  0,                                      ! Daylight Saving Time Indicator
  Wetbulb,                                ! Humidity Indicating Type
  ,                                       ! Humidity Indicating Day Schedule Name
  DefaultMultipliers,                     ! Dry-Bulb Temperature Range Modifier Type
  ,                                       ! Dry-Bulb Temperature Range Modifier Schedule Name
  ASHRAETau,                              ! Solar Model Indicator
  ,                                       ! Beam Solar Day Schedule Name
  ,                                       ! Diffuse Solar Day Schedule Name
  0.461,                                  ! ASHRAE Taub {dimensionless}
  2.107;                                  ! ASHRAE Taud {dimensionless}

OS:ComponentData,
  {fbf099eb-8d5a-4e5a-a19e-cf6b2a8b3b0c}, ! Handle
  Component Data 1,                       ! Name
  {6d7f2929-d4d9-4961-819a-13c9521974f8}, ! UUID
  {15ef4d43-f2ff-4516-8212-5cc3e849e1e2}, ! Version UUID
  1366310819,                             ! Creation Timestamp
  1366310819,                             ! Version Timestamp
  {ae0622c4-0f1c-42b1-b8f9-7b98976912f7}; ! Name of Object 1

