
OS:Version,
  {32a4264d-ae78-43ee-a092-f780e33aa586}, ! Handle
  0.9.3;                                  ! Version Identifier

OS:SizingPeriod:DesignDay,
  {0aff86ec-619f-4231-87d8-0bac34856afc}, ! Handle
  Pendleton E Or Regional Ap Ann Hum_n 99% Condns DP=>MCDB, ! Name
  -8.8,                                   ! Maximum Dry-Bulb Temperature {C}
  0,                                      ! Daily Dry-Bulb Temperature Range {deltaC}
  -12.3,                                  ! Humidity Indicating Conditions at Maximum Dry-Bulb {BasedOnField A3}
  96012,                                  ! Barometric Pressure {Pa}
  2,                                      ! Wind Speed {m/s}
  140,                                    ! Wind Direction {deg}
  0,                                      ! Sky Clearness
  0,                                      ! Rain Indicator
  0,                                      ! Snow Indicator
  21,                                     ! Day of Month
  12,                                     ! Month
  WinterDesignDay,                        ! Day Type
  0,                                      ! Daylight Saving Time Indicator
  Dewpoint,                               ! Humidity Indicating Type
  ,                                       ! Humidity Indicating Day Schedule Name
  DefaultMultipliers,                     ! Dry-Bulb Temperature Range Modifier Type
  ,                                       ! Dry-Bulb Temperature Range Modifier Schedule Name
  ASHRAEClearSky;                         ! Solar Model Indicator

OS:ComponentData,
  {f04aad31-3342-4db4-a7d0-ee3a9aca618a}, ! Handle
  Component Data 1,                       ! Name
  {b98713db-1336-4966-bc4b-5d4341efb501}, ! UUID
  {a8150d70-f119-41a0-a13e-f3144424f9f9}, ! Version UUID
  1366310058,                             ! Creation Timestamp
  1366310058,                             ! Version Timestamp
  {0aff86ec-619f-4231-87d8-0bac34856afc}; ! Name of Object 1

