
OS:Version,
  {f4277d80-7b13-4b90-b979-1d7004ab5788}, ! Handle
  0.9.3;                                  ! Version Identifier

OS:SizingPeriod:DesignDay,
  {47081820-dbfb-4348-a888-d57e5b37620a}, ! Handle
  Wichita Mid Continent Ap Ann Hum_n 99% Condns DP=>MCDB, ! Name
  -10.2,                                  ! Maximum Dry-Bulb Temperature {C}
  0,                                      ! Daily Dry-Bulb Temperature Range {deltaC}
  -17.6,                                  ! Humidity Indicating Conditions at Maximum Dry-Bulb {BasedOnField A3}
  96588,                                  ! Barometric Pressure {Pa}
  5.2,                                    ! Wind Speed {m/s}
  0,                                      ! Wind Direction {deg}
  0,                                      ! Sky Clearness
  0,                                      ! Rain Indicator
  0,                                      ! Snow Indicator
  21,                                     ! Day of Month
  1,                                      ! Month
  WinterDesignDay,                        ! Day Type
  0,                                      ! Daylight Saving Time Indicator
  Dewpoint,                               ! Humidity Indicating Type
  ,                                       ! Humidity Indicating Day Schedule Name
  DefaultMultipliers,                     ! Dry-Bulb Temperature Range Modifier Type
  ,                                       ! Dry-Bulb Temperature Range Modifier Schedule Name
  ASHRAEClearSky;                         ! Solar Model Indicator

OS:ComponentData,
  {2fc23d90-fc2d-40d4-b387-2b340a9978af}, ! Handle
  Component Data 1,                       ! Name
  {2099c1e4-16b2-47a4-bf3b-a5ea5a83f9eb}, ! UUID
  {be3b2a3c-dd21-4560-bcef-9ed6a593e04f}, ! Version UUID
  1366307602,                             ! Creation Timestamp
  1366307602,                             ! Version Timestamp
  {47081820-dbfb-4348-a888-d57e5b37620a}; ! Name of Object 1

