
OS:Version,
  {00c675aa-e5c4-43b2-a372-30c127e059c8}, ! Handle
  0.9.3;                                  ! Version Identifier

OS:SizingPeriod:DesignDay,
  {2a453d02-2293-4fdc-a95b-46069fac08e8}, ! Handle
  YAKUTAT Ann Clg 1% Condns DP=>MDB,      ! Name
  14.4,                                   ! Maximum Dry-Bulb Temperature {C}
  5.8,                                    ! Daily Dry-Bulb Temperature Range {deltaC}
  12.9,                                   ! Humidity Indicating Conditions at Maximum Dry-Bulb {BasedOnField A3}
  101217,                                 ! Barometric Pressure {Pa}
  3.4,                                    ! Wind Speed {m/s}
  320,                                    ! Wind Direction {deg}
  0,                                      ! Sky Clearness
  0,                                      ! Rain Indicator
  0,                                      ! Snow Indicator
  21,                                     ! Day of Month
  7,                                      ! Month
  SummerDesignDay,                        ! Day Type
  0,                                      ! Daylight Saving Time Indicator
  Dewpoint,                               ! Humidity Indicating Type
  ,                                       ! Humidity Indicating Day Schedule Name
  DefaultMultipliers,                     ! Dry-Bulb Temperature Range Modifier Type
  ,                                       ! Dry-Bulb Temperature Range Modifier Schedule Name
  ASHRAETau,                              ! Solar Model Indicator
  ,                                       ! Beam Solar Day Schedule Name
  ,                                       ! Diffuse Solar Day Schedule Name
  0.371,                                  ! ASHRAE Taub {dimensionless}
  2.194;                                  ! ASHRAE Taud {dimensionless}

OS:ComponentData,
  {ad1f5636-743c-4603-aa81-d718f7879d29}, ! Handle
  Component Data 1,                       ! Name
  {97a46fdd-ab13-42ba-9d6d-01444e3163b1}, ! UUID
  {0c470742-1f40-4de9-8203-a4515a5001f2}, ! Version UUID
  1366305621,                             ! Creation Timestamp
  1366305621,                             ! Version Timestamp
  {2a453d02-2293-4fdc-a95b-46069fac08e8}; ! Name of Object 1

