
OS:Version,
  {e4583d57-42d2-4ab9-aba1-e09c7e259657}, ! Handle
  0.9.3;                                  ! Version Identifier

OS:SizingPeriod:DesignDay,
  {43d63721-41d5-4533-a43b-a0887bb741ed}, ! Handle
  Vernal Ann Clg 1% Condns DP=>MDB,       ! Name
  21.1,                                   ! Maximum Dry-Bulb Temperature {C}
  17.6,                                   ! Daily Dry-Bulb Temperature Range {deltaC}
  13.7,                                   ! Humidity Indicating Conditions at Maximum Dry-Bulb {BasedOnField A3}
  83441,                                  ! Barometric Pressure {Pa}
  3.2,                                    ! Wind Speed {m/s}
  240,                                    ! Wind Direction {deg}
  0,                                      ! Sky Clearness
  0,                                      ! Rain Indicator
  0,                                      ! Snow Indicator
  21,                                     ! Day of Month
  7,                                      ! Month
  SummerDesignDay,                        ! Day Type
  0,                                      ! Daylight Saving Time Indicator
  Dewpoint,                               ! Humidity Indicating Type
  ,                                       ! Humidity Indicating Day Schedule Name
  DefaultMultipliers,                     ! Dry-Bulb Temperature Range Modifier Type
  ,                                       ! Dry-Bulb Temperature Range Modifier Schedule Name
  ASHRAETau,                              ! Solar Model Indicator
  ,                                       ! Beam Solar Day Schedule Name
  ,                                       ! Diffuse Solar Day Schedule Name
  0.396,                                  ! ASHRAE Taub {dimensionless}
  2.103;                                  ! ASHRAE Taud {dimensionless}

OS:ComponentData,
  {6f83575f-7487-4548-a368-ebeb95e017b4}, ! Handle
  Component Data 1,                       ! Name
  {80079ce7-af2f-44b2-b9fd-64b7e292d44c}, ! UUID
  {df84530e-e409-4c8c-a593-a5fac6f750b4}, ! Version UUID
  1366311005,                             ! Creation Timestamp
  1366311005,                             ! Version Timestamp
  {43d63721-41d5-4533-a43b-a0887bb741ed}; ! Name of Object 1

