
OS:Version,
  {85e92dbe-19ba-4f60-85db-1608c86cb5dd}, ! Handle
  0.9.3;                                  ! Version Identifier

OS:SizingPeriod:DesignDay,
  {f5b0679d-b4ec-4809-805f-10c2967be5dc}, ! Handle
  Massena Ann Htg 99.6% Condns DB,        ! Name
  -25.9,                                  ! Maximum Dry-Bulb Temperature {C}
  0,                                      ! Daily Dry-Bulb Temperature Range {deltaC}
  -25.9,                                  ! Humidity Indicating Conditions at Maximum Dry-Bulb {BasedOnField A3}
  100547,                                 ! Barometric Pressure {Pa}
  1.8,                                    ! Wind Speed {m/s}
  270,                                    ! Wind Direction {deg}
  0,                                      ! Sky Clearness
  0,                                      ! Rain Indicator
  0,                                      ! Snow Indicator
  21,                                     ! Day of Month
  1,                                      ! Month
  WinterDesignDay,                        ! Day Type
  0,                                      ! Daylight Saving Time Indicator
  Wetbulb,                                ! Humidity Indicating Type
  ,                                       ! Humidity Indicating Day Schedule Name
  DefaultMultipliers,                     ! Dry-Bulb Temperature Range Modifier Type
  ,                                       ! Dry-Bulb Temperature Range Modifier Schedule Name
  ASHRAEClearSky;                         ! Solar Model Indicator

OS:ComponentData,
  {abb8713f-41cd-49ad-993b-6328b2fa88d6}, ! Handle
  Component Data 1,                       ! Name
  {aa28dc62-e8ed-48ed-8b71-893fa9ac5285}, ! UUID
  {d76ea313-09bd-40de-8ace-88f69b910089}, ! Version UUID
  1366309649,                             ! Creation Timestamp
  1366309649,                             ! Version Timestamp
  {f5b0679d-b4ec-4809-805f-10c2967be5dc}; ! Name of Object 1

