
OS:Version,
  {ad725c24-6b3e-4064-a637-e18233bb5806}, ! Handle
  0.9.3;                                  ! Version Identifier

OS:SizingPeriod:DesignDay,
  {efa86749-9393-4503-a3be-f19c50a4ca57}, ! Handle
  Salt Lake City IntL Arpt  Isi Ann Clg 2% Condns WB=>MDB, ! Name
  29.5,                                   ! Maximum Dry-Bulb Temperature {C}
  14.4,                                   ! Daily Dry-Bulb Temperature Range {deltaC}
  18,                                     ! Humidity Indicating Conditions at Maximum Dry-Bulb {BasedOnField A3}
  86779,                                  ! Barometric Pressure {Pa}
  5.1,                                    ! Wind Speed {m/s}
  340,                                    ! Wind Direction {deg}
  0,                                      ! Sky Clearness
  0,                                      ! Rain Indicator
  0,                                      ! Snow Indicator
  21,                                     ! Day of Month
  7,                                      ! Month
  SummerDesignDay,                        ! Day Type
  0,                                      ! Daylight Saving Time Indicator
  Wetbulb,                                ! Humidity Indicating Type
  ,                                       ! Humidity Indicating Day Schedule Name
  DefaultMultipliers,                     ! Dry-Bulb Temperature Range Modifier Type
  ,                                       ! Dry-Bulb Temperature Range Modifier Schedule Name
  ASHRAETau,                              ! Solar Model Indicator
  ,                                       ! Beam Solar Day Schedule Name
  ,                                       ! Diffuse Solar Day Schedule Name
  0.44,                                   ! ASHRAE Taub {dimensionless}
  1.968;                                  ! ASHRAE Taud {dimensionless}

OS:ComponentData,
  {400b3766-940b-4d84-96c5-cf259433fd77}, ! Handle
  Component Data 1,                       ! Name
  {423bed1a-c22c-4e5d-837d-547f5312dcf0}, ! UUID
  {a7a8b3c8-c013-4ce4-b222-ef65ef4f8f26}, ! Version UUID
  1366310999,                             ! Creation Timestamp
  1366310999,                             ! Version Timestamp
  {efa86749-9393-4503-a3be-f19c50a4ca57}; ! Name of Object 1

