
OS:Version,
  {7f5739f3-7fe7-4c46-a000-c59d1fe1d629}, ! Handle
  0.9.3;                                  ! Version Identifier

OS:SizingPeriod:DesignDay,
  {ab37c0ff-e65c-48b0-8779-8a007e19ed82}, ! Handle
  Springfield Capital Ap Ann Clg 1% Condns WB=>MDB, ! Name
  30.9,                                   ! Maximum Dry-Bulb Temperature {C}
  10.7,                                   ! Daily Dry-Bulb Temperature Range {deltaC}
  25.5,                                   ! Humidity Indicating Conditions at Maximum Dry-Bulb {BasedOnField A3}
  99193,                                  ! Barometric Pressure {Pa}
  4.6,                                    ! Wind Speed {m/s}
  230,                                    ! Wind Direction {deg}
  0,                                      ! Sky Clearness
  0,                                      ! Rain Indicator
  0,                                      ! Snow Indicator
  21,                                     ! Day of Month
  7,                                      ! Month
  SummerDesignDay,                        ! Day Type
  0,                                      ! Daylight Saving Time Indicator
  Wetbulb,                                ! Humidity Indicating Type
  ,                                       ! Humidity Indicating Day Schedule Name
  DefaultMultipliers,                     ! Dry-Bulb Temperature Range Modifier Type
  ,                                       ! Dry-Bulb Temperature Range Modifier Schedule Name
  ASHRAETau,                              ! Solar Model Indicator
  ,                                       ! Beam Solar Day Schedule Name
  ,                                       ! Diffuse Solar Day Schedule Name
  0.463,                                  ! ASHRAE Taub {dimensionless}
  2.022;                                  ! ASHRAE Taud {dimensionless}

OS:ComponentData,
  {827fb2a3-c431-4af4-9bae-1ba9576305d5}, ! Handle
  Component Data 1,                       ! Name
  {87a0773e-6128-4d8b-8eb8-73d008db6c0f}, ! UUID
  {6b8a2bec-ef3d-4639-b40e-174c70643ec9}, ! Version UUID
  1366307405,                             ! Creation Timestamp
  1366307405,                             ! Version Timestamp
  {ab37c0ff-e65c-48b0-8779-8a007e19ed82}; ! Name of Object 1

