
OS:Version,
  {feb3ceb6-8ce1-449a-acfe-e49e57a6d653}, ! Handle
  0.9.3;                                  ! Version Identifier

OS:SizingPeriod:DesignDay,
  {3798aaf1-b859-4130-bcf5-b9733d314246}, ! Handle
  MOBILE Ann Clg 2% Condns WB=>MDB,       ! Name
  30,                                     ! Maximum Dry-Bulb Temperature {C}
  9.4,                                    ! Daily Dry-Bulb Temperature Range {deltaC}
  25.7,                                   ! Humidity Indicating Conditions at Maximum Dry-Bulb {BasedOnField A3}
  100523,                                 ! Barometric Pressure {Pa}
  3.5,                                    ! Wind Speed {m/s}
  350,                                    ! Wind Direction {deg}
  0,                                      ! Sky Clearness
  0,                                      ! Rain Indicator
  0,                                      ! Snow Indicator
  21,                                     ! Day of Month
  7,                                      ! Month
  SummerDesignDay,                        ! Day Type
  0,                                      ! Daylight Saving Time Indicator
  Wetbulb,                                ! Humidity Indicating Type
  ,                                       ! Humidity Indicating Day Schedule Name
  DefaultMultipliers,                     ! Dry-Bulb Temperature Range Modifier Type
  ,                                       ! Dry-Bulb Temperature Range Modifier Schedule Name
  ASHRAETau,                              ! Solar Model Indicator
  ,                                       ! Beam Solar Day Schedule Name
  ,                                       ! Diffuse Solar Day Schedule Name
  0.538,                                  ! ASHRAE Taub {dimensionless}
  1.867;                                  ! ASHRAE Taud {dimensionless}

OS:ComponentData,
  {fe5d319b-64f2-44d2-b69b-d74c7472082d}, ! Handle
  Component Data 1,                       ! Name
  {baae33d5-4367-46c0-8429-98dad165b3f2}, ! UUID
  {2ac898c8-b759-4d36-aca2-bd10f72d5bdc}, ! Version UUID
  1366305841,                             ! Creation Timestamp
  1366305841,                             ! Version Timestamp
  {3798aaf1-b859-4130-bcf5-b9733d314246}; ! Name of Object 1

