
OS:Version,
  {9043505c-daea-4cb1-9310-a8d3d84783c2}, ! Handle
  0.9.3;                                  ! Version Identifier

OS:SizingPeriod:DesignDay,
  {99ab6f1d-5d37-4288-b1bb-bc48f68ca125}, ! Handle
  Patuxent River Nas Ann Clg 2% Condns WB=>MDB, ! Name
  29.2,                                   ! Maximum Dry-Bulb Temperature {C}
  8.6,                                    ! Daily Dry-Bulb Temperature Range {deltaC}
  24.7,                                   ! Humidity Indicating Conditions at Maximum Dry-Bulb {BasedOnField A3}
  101157,                                 ! Barometric Pressure {Pa}
  3.9,                                    ! Wind Speed {m/s}
  250,                                    ! Wind Direction {deg}
  0,                                      ! Sky Clearness
  0,                                      ! Rain Indicator
  0,                                      ! Snow Indicator
  21,                                     ! Day of Month
  7,                                      ! Month
  SummerDesignDay,                        ! Day Type
  0,                                      ! Daylight Saving Time Indicator
  Wetbulb,                                ! Humidity Indicating Type
  ,                                       ! Humidity Indicating Day Schedule Name
  DefaultMultipliers,                     ! Dry-Bulb Temperature Range Modifier Type
  ,                                       ! Dry-Bulb Temperature Range Modifier Schedule Name
  ASHRAETau,                              ! Solar Model Indicator
  ,                                       ! Beam Solar Day Schedule Name
  ,                                       ! Diffuse Solar Day Schedule Name
  0.592,                                  ! ASHRAE Taub {dimensionless}
  1.683;                                  ! ASHRAE Taud {dimensionless}

OS:ComponentData,
  {0ff80d79-2779-4eba-8afd-eb3953f7e476}, ! Handle
  Component Data 1,                       ! Name
  {fbf4ec44-6acb-46ad-8be5-a2fde8b29148}, ! UUID
  {75a9163c-004d-4e82-bbfe-ac1d82c7eaa3}, ! Version UUID
  1366307858,                             ! Creation Timestamp
  1366307858,                             ! Version Timestamp
  {99ab6f1d-5d37-4288-b1bb-bc48f68ca125}; ! Name of Object 1

