
OS:Version,
  {5abef8fe-3a15-4c6d-9269-dea713a47d7c}, ! Handle
  0.9.3;                                  ! Version Identifier

OS:SizingPeriod:DesignDay,
  {23a5d166-6845-43ad-8ead-6b686c554153}, ! Handle
  Saginaw Tri City Intl Ap Ann Clg 2% Condns WB=>MDB, ! Name
  27,                                     ! Maximum Dry-Bulb Temperature {C}
  11.5,                                   ! Daily Dry-Bulb Temperature Range {deltaC}
  22.5,                                   ! Humidity Indicating Conditions at Maximum Dry-Bulb {BasedOnField A3}
  98934,                                  ! Barometric Pressure {Pa}
  5.8,                                    ! Wind Speed {m/s}
  240,                                    ! Wind Direction {deg}
  0,                                      ! Sky Clearness
  0,                                      ! Rain Indicator
  0,                                      ! Snow Indicator
  21,                                     ! Day of Month
  7,                                      ! Month
  SummerDesignDay,                        ! Day Type
  0,                                      ! Daylight Saving Time Indicator
  Wetbulb,                                ! Humidity Indicating Type
  ,                                       ! Humidity Indicating Day Schedule Name
  DefaultMultipliers,                     ! Dry-Bulb Temperature Range Modifier Type
  ,                                       ! Dry-Bulb Temperature Range Modifier Schedule Name
  ASHRAETau,                              ! Solar Model Indicator
  ,                                       ! Beam Solar Day Schedule Name
  ,                                       ! Diffuse Solar Day Schedule Name
  0.435,                                  ! ASHRAE Taub {dimensionless}
  2.102;                                  ! ASHRAE Taud {dimensionless}

OS:ComponentData,
  {0be86fa9-1648-4241-8ff5-9f3b36efc4d2}, ! Handle
  Component Data 1,                       ! Name
  {3f6e9a33-f6b5-4f01-8d81-6e01ac02e32f}, ! UUID
  {6062a0ff-756d-4f85-b18a-9f6c98a1d19e}, ! Version UUID
  1366308097,                             ! Creation Timestamp
  1366308097,                             ! Version Timestamp
  {23a5d166-6845-43ad-8ead-6b686c554153}; ! Name of Object 1

