
OS:Version,
  {12af9f15-be4b-4a3e-9b84-a41bcd61c82f}, ! Handle
  0.9.3;                                  ! Version Identifier

OS:SizingPeriod:DesignDay,
  {b0b7cb8a-d5e6-4d20-b094-22ddca176b3f}, ! Handle
  Pierre Municipal Ap Ann Htg Wind 99% Condns WS=>MCDB, ! Name
  -5.5,                                   ! Maximum Dry-Bulb Temperature {C}
  0,                                      ! Daily Dry-Bulb Temperature Range {deltaC}
  -5.5,                                   ! Humidity Indicating Conditions at Maximum Dry-Bulb {BasedOnField A3}
  95141,                                  ! Barometric Pressure {Pa}
  13.6,                                   ! Wind Speed {m/s}
  310,                                    ! Wind Direction {deg}
  0,                                      ! Sky Clearness
  0,                                      ! Rain Indicator
  0,                                      ! Snow Indicator
  21,                                     ! Day of Month
  1,                                      ! Month
  WinterDesignDay,                        ! Day Type
  0,                                      ! Daylight Saving Time Indicator
  Wetbulb,                                ! Humidity Indicating Type
  ,                                       ! Humidity Indicating Day Schedule Name
  DefaultMultipliers,                     ! Dry-Bulb Temperature Range Modifier Type
  ,                                       ! Dry-Bulb Temperature Range Modifier Schedule Name
  ASHRAEClearSky;                         ! Solar Model Indicator

OS:ComponentData,
  {56e6b79f-4897-4a15-97b6-09bbee798170}, ! Handle
  Component Data 1,                       ! Name
  {9137f51e-207f-43a3-b85a-5e02c80c01f1}, ! UUID
  {485e446a-9fce-4b13-8322-5e35d84e6c60}, ! Version UUID
  1366310435,                             ! Creation Timestamp
  1366310435,                             ! Version Timestamp
  {b0b7cb8a-d5e6-4d20-b094-22ddca176b3f}; ! Name of Object 1

