
OS:Version,
  {fd95bd76-3d97-4d4c-94f1-eafbaf038f3b}, ! Handle
  0.9.3;                                  ! Version Identifier

OS:SizingPeriod:DesignDay,
  {919ec481-200c-4e8e-bd0a-0871744eb81d}, ! Handle
  Winnemucca Ann Clg 2% Condns Enth=>MDB, ! Name
  31.1,                                   ! Maximum Dry-Bulb Temperature {C}
  21.5,                                   ! Daily Dry-Bulb Temperature Range {deltaC}
  50300,                                  ! Humidity Indicating Conditions at Maximum Dry-Bulb {BasedOnField A3}
  86493,                                  ! Barometric Pressure {Pa}
  4.4,                                    ! Wind Speed {m/s}
  240,                                    ! Wind Direction {deg}
  0,                                      ! Sky Clearness
  0,                                      ! Rain Indicator
  0,                                      ! Snow Indicator
  21,                                     ! Day of Month
  7,                                      ! Month
  SummerDesignDay,                        ! Day Type
  0,                                      ! Daylight Saving Time Indicator
  Enthalpy,                               ! Humidity Indicating Type
  ,                                       ! Humidity Indicating Day Schedule Name
  DefaultMultipliers,                     ! Dry-Bulb Temperature Range Modifier Type
  ,                                       ! Dry-Bulb Temperature Range Modifier Schedule Name
  ASHRAETau,                              ! Solar Model Indicator
  ,                                       ! Beam Solar Day Schedule Name
  ,                                       ! Diffuse Solar Day Schedule Name
  0.441,                                  ! ASHRAE Taub {dimensionless}
  1.893;                                  ! ASHRAE Taud {dimensionless}

OS:ComponentData,
  {549348d0-371b-4bf6-b32c-5a965eacef43}, ! Handle
  Component Data 1,                       ! Name
  {004ae8ee-7544-4d2f-89e7-ed5b54fd95e2}, ! UUID
  {7aabdff4-dd9f-4f1e-aec1-fa386061f8a0}, ! Version UUID
  1366309565,                             ! Creation Timestamp
  1366309565,                             ! Version Timestamp
  {919ec481-200c-4e8e-bd0a-0871744eb81d}; ! Name of Object 1

