
OS:Version,
  {d6172b87-df66-4270-a559-416be990d6cc}, ! Handle
  0.9.3;                                  ! Version Identifier

OS:SizingPeriod:DesignDay,
  {b1de8d54-cbbc-445d-ba24-62b67b8310db}, ! Handle
  SAN_ANTONIO Ann Clg .4% Condns DP=>MDB, ! Name
  27.1,                                   ! Maximum Dry-Bulb Temperature {C}
  12.5,                                   ! Daily Dry-Bulb Temperature Range {deltaC}
  24.2,                                   ! Humidity Indicating Conditions at Maximum Dry-Bulb {BasedOnField A3}
  98451,                                  ! Barometric Pressure {Pa}
  4.7,                                    ! Wind Speed {m/s}
  160,                                    ! Wind Direction {deg}
  0,                                      ! Sky Clearness
  0,                                      ! Rain Indicator
  0,                                      ! Snow Indicator
  21,                                     ! Day of Month
  8,                                      ! Month
  SummerDesignDay,                        ! Day Type
  0,                                      ! Daylight Saving Time Indicator
  Dewpoint,                               ! Humidity Indicating Type
  ,                                       ! Humidity Indicating Day Schedule Name
  DefaultMultipliers,                     ! Dry-Bulb Temperature Range Modifier Type
  ,                                       ! Dry-Bulb Temperature Range Modifier Schedule Name
  ASHRAETau,                              ! Solar Model Indicator
  ,                                       ! Beam Solar Day Schedule Name
  ,                                       ! Diffuse Solar Day Schedule Name
  0.45,                                   ! ASHRAE Taub {dimensionless}
  2.14;                                   ! ASHRAE Taud {dimensionless}

OS:ComponentData,
  {963569e9-4dbb-4360-8344-83abdb2dd3f5}, ! Handle
  Component Data 1,                       ! Name
  {95f81a25-735e-4a1b-ba80-bc1932f8e8f8}, ! UUID
  {7955e4df-0d11-4a48-8604-e3d566ddcbcc}, ! Version UUID
  1366310891,                             ! Creation Timestamp
  1366310891,                             ! Version Timestamp
  {b1de8d54-cbbc-445d-ba24-62b67b8310db}; ! Name of Object 1

