
OS:Version,
  {bc0f9551-ac7d-48ef-9dcd-6fb60bd509f3}, ! Handle
  0.9.3;                                  ! Version Identifier

OS:SizingPeriod:DesignDay,
  {7478b24e-82d6-4674-9e61-433200a69b95}, ! Handle
  Raleigh/Durham Ann Clg 2% Condns Enth=>MDB, ! Name
  30.1,                                   ! Maximum Dry-Bulb Temperature {C}
  10.5,                                   ! Daily Dry-Bulb Temperature Range {deltaC}
  74900,                                  ! Humidity Indicating Conditions at Maximum Dry-Bulb {BasedOnField A3}
  99726,                                  ! Barometric Pressure {Pa}
  4,                                      ! Wind Speed {m/s}
  240,                                    ! Wind Direction {deg}
  0,                                      ! Sky Clearness
  0,                                      ! Rain Indicator
  0,                                      ! Snow Indicator
  21,                                     ! Day of Month
  7,                                      ! Month
  SummerDesignDay,                        ! Day Type
  0,                                      ! Daylight Saving Time Indicator
  Enthalpy,                               ! Humidity Indicating Type
  ,                                       ! Humidity Indicating Day Schedule Name
  DefaultMultipliers,                     ! Dry-Bulb Temperature Range Modifier Type
  ,                                       ! Dry-Bulb Temperature Range Modifier Schedule Name
  ASHRAETau,                              ! Solar Model Indicator
  ,                                       ! Beam Solar Day Schedule Name
  ,                                       ! Diffuse Solar Day Schedule Name
  0.577,                                  ! ASHRAE Taub {dimensionless}
  1.722;                                  ! ASHRAE Taud {dimensionless}

OS:ComponentData,
  {ade935f5-3d5a-441f-9842-ffa29a67c0cf}, ! Handle
  Component Data 1,                       ! Name
  {a8020cf4-fb36-471e-9309-41730cbbce6b}, ! UUID
  {064d150a-74a3-4d6d-b6b0-9853abe12dc7}, ! Version UUID
  1366308970,                             ! Creation Timestamp
  1366308970,                             ! Version Timestamp
  {7478b24e-82d6-4674-9e61-433200a69b95}; ! Name of Object 1

