
OS:Version,
  {94efc566-6cd3-4571-ae41-2442d79e3e41}, ! Handle
  0.9.3;                                  ! Version Identifier

OS:SizingPeriod:DesignDay,
  {13b1e7ac-0c03-4728-9ba8-7252755b9514}, ! Handle
  Sumter Shaw Afb Ann Clg .4% Condns DP=>MDB, ! Name
  27.8,                                   ! Maximum Dry-Bulb Temperature {C}
  10.4,                                   ! Daily Dry-Bulb Temperature Range {deltaC}
  24.3,                                   ! Humidity Indicating Conditions at Maximum Dry-Bulb {BasedOnField A3}
  100439,                                 ! Barometric Pressure {Pa}
  3.6,                                    ! Wind Speed {m/s}
  240,                                    ! Wind Direction {deg}
  0,                                      ! Sky Clearness
  0,                                      ! Rain Indicator
  0,                                      ! Snow Indicator
  21,                                     ! Day of Month
  7,                                      ! Month
  SummerDesignDay,                        ! Day Type
  0,                                      ! Daylight Saving Time Indicator
  Dewpoint,                               ! Humidity Indicating Type
  ,                                       ! Humidity Indicating Day Schedule Name
  DefaultMultipliers,                     ! Dry-Bulb Temperature Range Modifier Type
  ,                                       ! Dry-Bulb Temperature Range Modifier Schedule Name
  ASHRAETau,                              ! Solar Model Indicator
  ,                                       ! Beam Solar Day Schedule Name
  ,                                       ! Diffuse Solar Day Schedule Name
  0.57,                                   ! ASHRAE Taub {dimensionless}
  1.751;                                  ! ASHRAE Taud {dimensionless}

OS:ComponentData,
  {07097ab1-75a0-44af-9f48-1408f20a0e3f}, ! Handle
  Component Data 1,                       ! Name
  {a70fdc4f-4f60-47cd-aab1-54bfa434c95a}, ! UUID
  {9c134e3e-bbfc-4247-aa15-48f61cf84686}, ! Version UUID
  1366310380,                             ! Creation Timestamp
  1366310380,                             ! Version Timestamp
  {13b1e7ac-0c03-4728-9ba8-7252755b9514}; ! Name of Object 1

