
OS:Version,
  {6404b42f-3813-4cc5-902d-9c53f1f47fc3}, ! Handle
  0.9.3;                                  ! Version Identifier

OS:SizingPeriod:DesignDay,
  {22b5ce4b-be2e-4a80-aa4f-4c120a01c457}, ! Handle
  WICHITA_FALLS Ann Hum_n 99.6% Condns DP=>MCDB, ! Name
  -6.4,                                   ! Maximum Dry-Bulb Temperature {C}
  0,                                      ! Daily Dry-Bulb Temperature Range {deltaC}
  -16,                                    ! Humidity Indicating Conditions at Maximum Dry-Bulb {BasedOnField A3}
  97609,                                  ! Barometric Pressure {Pa}
  5.7,                                    ! Wind Speed {m/s}
  0,                                      ! Wind Direction {deg}
  0,                                      ! Sky Clearness
  0,                                      ! Rain Indicator
  0,                                      ! Snow Indicator
  21,                                     ! Day of Month
  1,                                      ! Month
  WinterDesignDay,                        ! Day Type
  0,                                      ! Daylight Saving Time Indicator
  Dewpoint,                               ! Humidity Indicating Type
  ,                                       ! Humidity Indicating Day Schedule Name
  DefaultMultipliers,                     ! Dry-Bulb Temperature Range Modifier Type
  ,                                       ! Dry-Bulb Temperature Range Modifier Schedule Name
  ASHRAEClearSky;                         ! Solar Model Indicator

OS:ComponentData,
  {402b03da-5d76-48cd-98de-892e26c7272a}, ! Handle
  Component Data 1,                       ! Name
  {da099748-fd51-49f6-9cee-b5d2cdf3b300}, ! UUID
  {163e050a-a0ba-44ec-90c0-16ab5a0b6f4e}, ! Version UUID
  1366310928,                             ! Creation Timestamp
  1366310928,                             ! Version Timestamp
  {22b5ce4b-be2e-4a80-aa4f-4c120a01c457}; ! Name of Object 1

