
OS:Version,
  {28a8a40b-3f73-4760-8e1d-5bd1d1a2d8e4}, ! Handle
  0.9.3;                                  ! Version Identifier

OS:SizingPeriod:DesignDay,
  {9b3cc678-dba1-48e5-89dc-46010a1e17b0}, ! Handle
  PENDLETON Ann Clg .4% Condns WB=>MDB,   ! Name
  32.9,                                   ! Maximum Dry-Bulb Temperature {C}
  15.8,                                   ! Daily Dry-Bulb Temperature Range {deltaC}
  19.3,                                   ! Humidity Indicating Conditions at Maximum Dry-Bulb {BasedOnField A3}
  95966,                                  ! Barometric Pressure {Pa}
  4.1,                                    ! Wind Speed {m/s}
  300,                                    ! Wind Direction {deg}
  0,                                      ! Sky Clearness
  0,                                      ! Rain Indicator
  0,                                      ! Snow Indicator
  21,                                     ! Day of Month
  7,                                      ! Month
  SummerDesignDay,                        ! Day Type
  0,                                      ! Daylight Saving Time Indicator
  Wetbulb,                                ! Humidity Indicating Type
  ,                                       ! Humidity Indicating Day Schedule Name
  DefaultMultipliers,                     ! Dry-Bulb Temperature Range Modifier Type
  ,                                       ! Dry-Bulb Temperature Range Modifier Schedule Name
  ASHRAETau,                              ! Solar Model Indicator
  ,                                       ! Beam Solar Day Schedule Name
  ,                                       ! Diffuse Solar Day Schedule Name
  0.384,                                  ! ASHRAE Taub {dimensionless}
  2.273;                                  ! ASHRAE Taud {dimensionless}

OS:ComponentData,
  {eda357d9-8fec-484f-9cb0-86439b06ec39}, ! Handle
  Component Data 1,                       ! Name
  {0cb84b4f-c376-4bc7-802b-15cebdd83d7c}, ! UUID
  {c92e082c-8325-4fb2-90a4-9a39d4e16b84}, ! Version UUID
  1366310063,                             ! Creation Timestamp
  1366310063,                             ! Version Timestamp
  {9b3cc678-dba1-48e5-89dc-46010a1e17b0}; ! Name of Object 1

