
OS:Version,
  {aadd719a-89dd-452a-a3ed-96b42ff604c4}, ! Handle
  0.9.3;                                  ! Version Identifier

OS:SizingPeriod:DesignDay,
  {d877f498-5912-47dd-a10b-f369d9b3fa6a}, ! Handle
  Roanoke Regional Ap Ann Clg .4% Condns WB=>MDB, ! Name
  30.4,                                   ! Maximum Dry-Bulb Temperature {C}
  10.6,                                   ! Daily Dry-Bulb Temperature Range {deltaC}
  24.1,                                   ! Humidity Indicating Conditions at Maximum Dry-Bulb {BasedOnField A3}
  97190,                                  ! Barometric Pressure {Pa}
  4,                                      ! Wind Speed {m/s}
  280,                                    ! Wind Direction {deg}
  0,                                      ! Sky Clearness
  0,                                      ! Rain Indicator
  0,                                      ! Snow Indicator
  21,                                     ! Day of Month
  7,                                      ! Month
  SummerDesignDay,                        ! Day Type
  0,                                      ! Daylight Saving Time Indicator
  Wetbulb,                                ! Humidity Indicating Type
  ,                                       ! Humidity Indicating Day Schedule Name
  DefaultMultipliers,                     ! Dry-Bulb Temperature Range Modifier Type
  ,                                       ! Dry-Bulb Temperature Range Modifier Schedule Name
  ASHRAETau,                              ! Solar Model Indicator
  ,                                       ! Beam Solar Day Schedule Name
  ,                                       ! Diffuse Solar Day Schedule Name
  0.529,                                  ! ASHRAE Taub {dimensionless}
  1.818;                                  ! ASHRAE Taud {dimensionless}

OS:ComponentData,
  {fddb2d05-6f9a-4707-8ca2-adeae5d796ef}, ! Handle
  Component Data 1,                       ! Name
  {4fe96a1e-2431-4856-af26-896346385790}, ! UUID
  {1c5e7119-247c-440f-9dc0-4d615dfdc2d9}, ! Version UUID
  1366311191,                             ! Creation Timestamp
  1366311191,                             ! Version Timestamp
  {d877f498-5912-47dd-a10b-f369d9b3fa6a}; ! Name of Object 1

