
OS:Version,
  {4aa2a626-ebd7-45ec-b6e1-06123c472ed4}, ! Handle
  0.9.3;                                  ! Version Identifier

OS:SizingPeriod:DesignDay,
  {0e027014-fbc0-419e-a645-f7ea85c64d81}, ! Handle
  McGrath Ann Clg .4% Condns DP=>MDB,     ! Name
  17.9,                                   ! Maximum Dry-Bulb Temperature {C}
  9.7,                                    ! Daily Dry-Bulb Temperature Range {deltaC}
  14.7,                                   ! Humidity Indicating Conditions at Maximum Dry-Bulb {BasedOnField A3}
  100094,                                 ! Barometric Pressure {Pa}
  3.2,                                    ! Wind Speed {m/s}
  0,                                      ! Wind Direction {deg}
  0,                                      ! Sky Clearness
  0,                                      ! Rain Indicator
  0,                                      ! Snow Indicator
  21,                                     ! Day of Month
  7,                                      ! Month
  SummerDesignDay,                        ! Day Type
  0,                                      ! Daylight Saving Time Indicator
  Dewpoint,                               ! Humidity Indicating Type
  ,                                       ! Humidity Indicating Day Schedule Name
  DefaultMultipliers,                     ! Dry-Bulb Temperature Range Modifier Type
  ,                                       ! Dry-Bulb Temperature Range Modifier Schedule Name
  ASHRAETau,                              ! Solar Model Indicator
  ,                                       ! Beam Solar Day Schedule Name
  ,                                       ! Diffuse Solar Day Schedule Name
  0.388,                                  ! ASHRAE Taub {dimensionless}
  2.208;                                  ! ASHRAE Taud {dimensionless}

OS:ComponentData,
  {74c7bcae-c8af-48b1-beba-ef56bd33dcc1}, ! Handle
  Component Data 1,                       ! Name
  {8abf2284-dea5-4701-a320-088aa74c48a9}, ! UUID
  {47330ac2-c839-44a3-8485-20dc1ea5033d}, ! Version UUID
  1366305412,                             ! Creation Timestamp
  1366305412,                             ! Version Timestamp
  {0e027014-fbc0-419e-a645-f7ea85c64d81}; ! Name of Object 1

