
OS:Version,
  {f99e0f46-6443-4f09-a895-96b96de94e6a}, ! Handle
  0.9.3;                                  ! Version Identifier

OS:SizingPeriod:DesignDay,
  {648ba5b3-7df3-45f5-8419-0fc70f284260}, ! Handle
  Paducah Barkley Regional Ap Ann Hum_n 99% Condns DP=>MCDB, ! Name
  -8.5,                                   ! Maximum Dry-Bulb Temperature {C}
  0,                                      ! Daily Dry-Bulb Temperature Range {deltaC}
  -14.9,                                  ! Humidity Indicating Conditions at Maximum Dry-Bulb {BasedOnField A3}
  99844,                                  ! Barometric Pressure {Pa}
  3.4,                                    ! Wind Speed {m/s}
  10,                                     ! Wind Direction {deg}
  0,                                      ! Sky Clearness
  0,                                      ! Rain Indicator
  0,                                      ! Snow Indicator
  21,                                     ! Day of Month
  1,                                      ! Month
  WinterDesignDay,                        ! Day Type
  0,                                      ! Daylight Saving Time Indicator
  Dewpoint,                               ! Humidity Indicating Type
  ,                                       ! Humidity Indicating Day Schedule Name
  DefaultMultipliers,                     ! Dry-Bulb Temperature Range Modifier Type
  ,                                       ! Dry-Bulb Temperature Range Modifier Schedule Name
  ASHRAEClearSky;                         ! Solar Model Indicator

OS:ComponentData,
  {96f0f86a-4a3d-4723-9b4d-369d3ffb98d8}, ! Handle
  Component Data 1,                       ! Name
  {e5b97e6f-fff2-4ace-bbb7-9bfe0173c0d7}, ! UUID
  {6075f9c1-bf6d-48aa-82e1-6d305982cd6b}, ! Version UUID
  1366307679,                             ! Creation Timestamp
  1366307679,                             ! Version Timestamp
  {648ba5b3-7df3-45f5-8419-0fc70f284260}; ! Name of Object 1

