
OS:Version,
  {148de4ae-6e61-49b8-b045-4011778f2dd3}, ! Handle
  0.9.3;                                  ! Version Identifier

OS:SizingPeriod:DesignDay,
  {14b76e98-7aba-4bf6-9cbb-79ea28026f33}, ! Handle
  St Paul Downtown Ap Ann Hum_n 99% Condns DP=>MCDB, ! Name
  -21.3,                                  ! Maximum Dry-Bulb Temperature {C}
  0,                                      ! Daily Dry-Bulb Temperature Range {deltaC}
  -26.4,                                  ! Humidity Indicating Conditions at Maximum Dry-Bulb {BasedOnField A3}
  98710,                                  ! Barometric Pressure {Pa}
  3.6,                                    ! Wind Speed {m/s}
  300,                                    ! Wind Direction {deg}
  0,                                      ! Sky Clearness
  0,                                      ! Rain Indicator
  0,                                      ! Snow Indicator
  21,                                     ! Day of Month
  1,                                      ! Month
  WinterDesignDay,                        ! Day Type
  0,                                      ! Daylight Saving Time Indicator
  Dewpoint,                               ! Humidity Indicating Type
  ,                                       ! Humidity Indicating Day Schedule Name
  DefaultMultipliers,                     ! Dry-Bulb Temperature Range Modifier Type
  ,                                       ! Dry-Bulb Temperature Range Modifier Schedule Name
  ASHRAEClearSky;                         ! Solar Model Indicator

OS:ComponentData,
  {192049e2-f54e-43cc-900e-0fe6c692f388}, ! Handle
  Component Data 1,                       ! Name
  {2ad8994c-9db5-40c9-a7e8-597cd32e8ea7}, ! UUID
  {117722b1-167f-4f0e-a6fd-0afa5ff4f562}, ! Version UUID
  1366308434,                             ! Creation Timestamp
  1366308434,                             ! Version Timestamp
  {14b76e98-7aba-4bf6-9cbb-79ea28026f33}; ! Name of Object 1

