
OS:Version,
  {597bbd4a-ab1b-47a5-9dcb-a0284c650942}, ! Handle
  0.9.3;                                  ! Version Identifier

OS:SizingPeriod:DesignDay,
  {65ad3b0b-5660-46ef-918a-0ba291064212}, ! Handle
  Univ Of Illinois Wi  Bondvill Ann Clg .4% Condns DB=>MWB, ! Name
  33.6,                                   ! Maximum Dry-Bulb Temperature {C}
  10.8,                                   ! Daily Dry-Bulb Temperature Range {deltaC}
  24.7,                                   ! Humidity Indicating Conditions at Maximum Dry-Bulb {BasedOnField A3}
  98792,                                  ! Barometric Pressure {Pa}
  5.3,                                    ! Wind Speed {m/s}
  240,                                    ! Wind Direction {deg}
  0,                                      ! Sky Clearness
  0,                                      ! Rain Indicator
  0,                                      ! Snow Indicator
  21,                                     ! Day of Month
  7,                                      ! Month
  SummerDesignDay,                        ! Day Type
  0,                                      ! Daylight Saving Time Indicator
  Wetbulb,                                ! Humidity Indicating Type
  ,                                       ! Humidity Indicating Day Schedule Name
  DefaultMultipliers,                     ! Dry-Bulb Temperature Range Modifier Type
  ,                                       ! Dry-Bulb Temperature Range Modifier Schedule Name
  ASHRAETau,                              ! Solar Model Indicator
  ,                                       ! Beam Solar Day Schedule Name
  ,                                       ! Diffuse Solar Day Schedule Name
  0.458,                                  ! ASHRAE Taub {dimensionless}
  2.034;                                  ! ASHRAE Taud {dimensionless}

OS:ComponentData,
  {cf2ae1ce-52ac-44de-8b63-5ce4e4f6d160}, ! Handle
  Component Data 1,                       ! Name
  {2faa1a5a-0247-4673-8dbd-a2eff7cbf918}, ! UUID
  {90f10612-9d84-47ba-80cf-d31c4a3d6cfc}, ! Version UUID
  1366307416,                             ! Creation Timestamp
  1366307416,                             ! Version Timestamp
  {65ad3b0b-5660-46ef-918a-0ba291064212}; ! Name of Object 1

