
OS:Version,
  {ac135fd6-a851-4434-9a47-a96100f78c5f}, ! Handle
  0.9.3;                                  ! Version Identifier

OS:SizingPeriod:DesignDay,
  {63a0a3f4-1aaa-4d59-8665-b6ea75027925}, ! Handle
  Maxwell Afb Ann Hum_n 99.6% Condns DP=>MCDB, ! Name
  2.9,                                    ! Maximum Dry-Bulb Temperature {C}
  0,                                      ! Daily Dry-Bulb Temperature Range {deltaC}
  -10.9,                                  ! Humidity Indicating Conditions at Maximum Dry-Bulb {BasedOnField A3}
  100690,                                 ! Barometric Pressure {Pa}
  2.4,                                    ! Wind Speed {m/s}
  340,                                    ! Wind Direction {deg}
  0,                                      ! Sky Clearness
  0,                                      ! Rain Indicator
  0,                                      ! Snow Indicator
  21,                                     ! Day of Month
  1,                                      ! Month
  WinterDesignDay,                        ! Day Type
  0,                                      ! Daylight Saving Time Indicator
  Dewpoint,                               ! Humidity Indicating Type
  ,                                       ! Humidity Indicating Day Schedule Name
  DefaultMultipliers,                     ! Dry-Bulb Temperature Range Modifier Type
  ,                                       ! Dry-Bulb Temperature Range Modifier Schedule Name
  ASHRAEClearSky;                         ! Solar Model Indicator

OS:ComponentData,
  {9f065a5b-c36f-483c-a7d1-ea5fee7f2bb4}, ! Handle
  Component Data 1,                       ! Name
  {723ce8bf-477e-4b93-b086-6cdf8266401c}, ! UUID
  {218f71bd-bbfd-407f-bf10-0095e1565a38}, ! Version UUID
  1366305687,                             ! Creation Timestamp
  1366305687,                             ! Version Timestamp
  {63a0a3f4-1aaa-4d59-8665-b6ea75027925}; ! Name of Object 1

