
OS:Version,
  {d1346078-c837-40b2-b572-a6baff4d8f48}, ! Handle
  0.9.3;                                  ! Version Identifier

OS:SizingPeriod:DesignDay,
  {c98f776a-1a1c-473c-aad3-b59694360dd8}, ! Handle
  Valdez Pioneer Fiel Ann Clg 1% Condns DB=>MWB, ! Name
  18.9,                                   ! Maximum Dry-Bulb Temperature {C}
  7,                                      ! Daily Dry-Bulb Temperature Range {deltaC}
  12.6,                                   ! Humidity Indicating Conditions at Maximum Dry-Bulb {BasedOnField A3}
  100869,                                 ! Barometric Pressure {Pa}
  3.6,                                    ! Wind Speed {m/s}
  260,                                    ! Wind Direction {deg}
  0,                                      ! Sky Clearness
  0,                                      ! Rain Indicator
  0,                                      ! Snow Indicator
  21,                                     ! Day of Month
  7,                                      ! Month
  SummerDesignDay,                        ! Day Type
  0,                                      ! Daylight Saving Time Indicator
  Wetbulb,                                ! Humidity Indicating Type
  ,                                       ! Humidity Indicating Day Schedule Name
  DefaultMultipliers,                     ! Dry-Bulb Temperature Range Modifier Type
  ,                                       ! Dry-Bulb Temperature Range Modifier Schedule Name
  ASHRAETau,                              ! Solar Model Indicator
  ,                                       ! Beam Solar Day Schedule Name
  ,                                       ! Diffuse Solar Day Schedule Name
  0.405,                                  ! ASHRAE Taub {dimensionless}
  2.035;                                  ! ASHRAE Taud {dimensionless}

OS:ComponentData,
  {f7ac6412-8f46-4b77-baee-578de1b41d3e}, ! Handle
  Component Data 1,                       ! Name
  {a2732b66-32f6-45d6-9af5-c5f0fab9c316}, ! UUID
  {2fcae2e6-4a2a-45c0-aaf9-0980c47e877d}, ! Version UUID
  1366305605,                             ! Creation Timestamp
  1366305605,                             ! Version Timestamp
  {c98f776a-1a1c-473c-aad3-b59694360dd8}; ! Name of Object 1

