
OS:Version,
  {c0b50032-e9c0-4519-a09b-17b94e8338eb}, ! Handle
  0.9.3;                                  ! Version Identifier

OS:SizingPeriod:DesignDay,
  {2bcc975d-e814-48ee-8b12-a05dd6f8e9e3}, ! Handle
  Trenton Mercer County Ap Ann Clg 1% Condns DB=>MWB, ! Name
  32.1,                                   ! Maximum Dry-Bulb Temperature {C}
  10.5,                                   ! Daily Dry-Bulb Temperature Range {deltaC}
  23.2,                                   ! Humidity Indicating Conditions at Maximum Dry-Bulb {BasedOnField A3}
  100547,                                 ! Barometric Pressure {Pa}
  4.7,                                    ! Wind Speed {m/s}
  250,                                    ! Wind Direction {deg}
  0,                                      ! Sky Clearness
  0,                                      ! Rain Indicator
  0,                                      ! Snow Indicator
  21,                                     ! Day of Month
  7,                                      ! Month
  SummerDesignDay,                        ! Day Type
  0,                                      ! Daylight Saving Time Indicator
  Wetbulb,                                ! Humidity Indicating Type
  ,                                       ! Humidity Indicating Day Schedule Name
  DefaultMultipliers,                     ! Dry-Bulb Temperature Range Modifier Type
  ,                                       ! Dry-Bulb Temperature Range Modifier Schedule Name
  ASHRAETau,                              ! Solar Model Indicator
  ,                                       ! Beam Solar Day Schedule Name
  ,                                       ! Diffuse Solar Day Schedule Name
  0.527,                                  ! ASHRAE Taub {dimensionless}
  1.83;                                   ! ASHRAE Taud {dimensionless}

OS:ComponentData,
  {aca1e824-9c2a-4e9b-81c1-4201ce260554}, ! Handle
  Component Data 1,                       ! Name
  {0848bd89-680c-4ce4-85b0-4786406f9d5e}, ! UUID
  {5bf32beb-a7a2-433c-a228-9a26695a1a69}, ! Version UUID
  1366309351,                             ! Creation Timestamp
  1366309351,                             ! Version Timestamp
  {2bcc975d-e814-48ee-8b12-a05dd6f8e9e3}; ! Name of Object 1

