
OS:Version,
  {ce5f03fd-29f6-439c-a40a-2dcc60e3a397}, ! Handle
  0.9.3;                                  ! Version Identifier

OS:SizingPeriod:DesignDay,
  {8f2077c7-3e41-42ad-8b42-99b8faa8ef4e}, ! Handle
  Shishmaref  Awos Ann Clg 2% Condns DB=>MWB, ! Name
  12.7,                                   ! Maximum Dry-Bulb Temperature {C}
  4.5,                                    ! Daily Dry-Bulb Temperature Range {deltaC}
  10.2,                                   ! Humidity Indicating Conditions at Maximum Dry-Bulb {BasedOnField A3}
  101301,                                 ! Barometric Pressure {Pa}
  5.3,                                    ! Wind Speed {m/s}
  90,                                     ! Wind Direction {deg}
  0,                                      ! Sky Clearness
  0,                                      ! Rain Indicator
  0,                                      ! Snow Indicator
  21,                                     ! Day of Month
  7,                                      ! Month
  SummerDesignDay,                        ! Day Type
  0,                                      ! Daylight Saving Time Indicator
  Wetbulb,                                ! Humidity Indicating Type
  ,                                       ! Humidity Indicating Day Schedule Name
  DefaultMultipliers,                     ! Dry-Bulb Temperature Range Modifier Type
  ,                                       ! Dry-Bulb Temperature Range Modifier Schedule Name
  ASHRAETau,                              ! Solar Model Indicator
  ,                                       ! Beam Solar Day Schedule Name
  ,                                       ! Diffuse Solar Day Schedule Name
  0.387,                                  ! ASHRAE Taub {dimensionless}
  2.17;                                   ! ASHRAE Taud {dimensionless}

OS:ComponentData,
  {8813b3c4-502b-40ff-9559-55dfc9c4167b}, ! Handle
  Component Data 1,                       ! Name
  {b1c6d467-0316-4610-8353-20ca3fcd942d}, ! UUID
  {2ea31788-e61f-4108-9285-f231a9847ab7}, ! Version UUID
  1366305546,                             ! Creation Timestamp
  1366305546,                             ! Version Timestamp
  {8f2077c7-3e41-42ad-8b42-99b8faa8ef4e}; ! Name of Object 1

