
OS:Version,
  {df537f2e-dd49-457a-ae9a-c4e984d15740}, ! Handle
  0.9.3;                                  ! Version Identifier

OS:SizingPeriod:DesignDay,
  {237438d3-16d9-425f-a874-4feaf119959e}, ! Handle
  Seward Ann Clg 2% Condns WB=>MDB,       ! Name
  16.4,                                   ! Maximum Dry-Bulb Temperature {C}
  5.5,                                    ! Daily Dry-Bulb Temperature Range {deltaC}
  13.6,                                   ! Humidity Indicating Conditions at Maximum Dry-Bulb {BasedOnField A3}
  101109,                                 ! Barometric Pressure {Pa}
  5.3,                                    ! Wind Speed {m/s}
  310,                                    ! Wind Direction {deg}
  0,                                      ! Sky Clearness
  0,                                      ! Rain Indicator
  0,                                      ! Snow Indicator
  21,                                     ! Day of Month
  7,                                      ! Month
  SummerDesignDay,                        ! Day Type
  0,                                      ! Daylight Saving Time Indicator
  Wetbulb,                                ! Humidity Indicating Type
  ,                                       ! Humidity Indicating Day Schedule Name
  DefaultMultipliers,                     ! Dry-Bulb Temperature Range Modifier Type
  ,                                       ! Dry-Bulb Temperature Range Modifier Schedule Name
  ASHRAETau,                              ! Solar Model Indicator
  ,                                       ! Beam Solar Day Schedule Name
  ,                                       ! Diffuse Solar Day Schedule Name
  0.399,                                  ! ASHRAE Taub {dimensionless}
  2.108;                                  ! ASHRAE Taud {dimensionless}

OS:ComponentData,
  {1a1f49c2-3f38-4e93-9417-a544e3b0d8c8}, ! Handle
  Component Data 1,                       ! Name
  {8c263e11-fd1b-4605-98ec-54350847166f}, ! UUID
  {68d1cb35-e9fe-4e3c-8c09-743276ae7dbd}, ! Version UUID
  1366305539,                             ! Creation Timestamp
  1366305539,                             ! Version Timestamp
  {237438d3-16d9-425f-a874-4feaf119959e}; ! Name of Object 1

