
OS:Version,
  {498f1fda-f559-455d-8f12-2c1022f9d38a}, ! Handle
  0.9.3;                                  ! Version Identifier

OS:SizingPeriod:DesignDay,
  {69f2b2f3-7361-4e81-aa17-eaebafbfbbdf}, ! Handle
  Moline/Davenport IA Ann Hum_n 99% Condns DP=>MCDB, ! Name
  -17.2,                                  ! Maximum Dry-Bulb Temperature {C}
  0,                                      ! Daily Dry-Bulb Temperature Range {deltaC}
  -22.7,                                  ! Humidity Indicating Conditions at Maximum Dry-Bulb {BasedOnField A3}
  99169,                                  ! Barometric Pressure {Pa}
  4.1,                                    ! Wind Speed {m/s}
  280,                                    ! Wind Direction {deg}
  0,                                      ! Sky Clearness
  0,                                      ! Rain Indicator
  0,                                      ! Snow Indicator
  21,                                     ! Day of Month
  1,                                      ! Month
  WinterDesignDay,                        ! Day Type
  0,                                      ! Daylight Saving Time Indicator
  Dewpoint,                               ! Humidity Indicating Type
  ,                                       ! Humidity Indicating Day Schedule Name
  DefaultMultipliers,                     ! Dry-Bulb Temperature Range Modifier Type
  ,                                       ! Dry-Bulb Temperature Range Modifier Schedule Name
  ASHRAEClearSky;                         ! Solar Model Indicator

OS:ComponentData,
  {48258b36-a438-422c-a9bb-99fc560a8726}, ! Handle
  Component Data 1,                       ! Name
  {6311ef6c-4b31-4478-8f50-c788b2d77aab}, ! UUID
  {9ccb5a5b-6c00-4909-b3f0-0efe0a4f91d5}, ! Version UUID
  1366307363,                             ! Creation Timestamp
  1366307363,                             ! Version Timestamp
  {69f2b2f3-7361-4e81-aa17-eaebafbfbbdf}; ! Name of Object 1

