
OS:Version,
  {86e0bc6f-586d-4091-87b1-b06f158b63fe}, ! Handle
  0.9.3;                                  ! Version Identifier

OS:SizingPeriod:DesignDay,
  {9010d3ce-355c-4ae1-a635-2bf5e9f4622b}, ! Handle
  MUSKEGON Ann Clg 1% Condns DP=>MDB,     ! Name
  25.7,                                   ! Maximum Dry-Bulb Temperature {C}
  10,                                     ! Daily Dry-Bulb Temperature Range {deltaC}
  22.1,                                   ! Humidity Indicating Conditions at Maximum Dry-Bulb {BasedOnField A3}
  99051,                                  ! Barometric Pressure {Pa}
  5.4,                                    ! Wind Speed {m/s}
  200,                                    ! Wind Direction {deg}
  0,                                      ! Sky Clearness
  0,                                      ! Rain Indicator
  0,                                      ! Snow Indicator
  21,                                     ! Day of Month
  7,                                      ! Month
  SummerDesignDay,                        ! Day Type
  0,                                      ! Daylight Saving Time Indicator
  Dewpoint,                               ! Humidity Indicating Type
  ,                                       ! Humidity Indicating Day Schedule Name
  DefaultMultipliers,                     ! Dry-Bulb Temperature Range Modifier Type
  ,                                       ! Dry-Bulb Temperature Range Modifier Schedule Name
  ASHRAETau,                              ! Solar Model Indicator
  ,                                       ! Beam Solar Day Schedule Name
  ,                                       ! Diffuse Solar Day Schedule Name
  0.436,                                  ! ASHRAE Taub {dimensionless}
  2.131;                                  ! ASHRAE Taud {dimensionless}

OS:ComponentData,
  {10790b03-3bc5-4572-9ec2-78fe6c97f3ad}, ! Handle
  Component Data 1,                       ! Name
  {bdc895ee-9434-4837-982f-cf663d710030}, ! UUID
  {c189c4a4-1c29-411c-b668-f12f46ebe016}, ! Version UUID
  1366308072,                             ! Creation Timestamp
  1366308072,                             ! Version Timestamp
  {9010d3ce-355c-4ae1-a635-2bf5e9f4622b}; ! Name of Object 1

