
OS:Version,
  {64ba0c96-5496-4724-b76c-b66f4dbf9b3f}, ! Handle
  0.9.3;                                  ! Version Identifier

OS:SizingPeriod:DesignDay,
  {d4776f11-98d8-4ebf-bdc2-0ff09a97b5cf}, ! Handle
  YAKUTAT Ann Clg 1% Condns DB=>MWB,      ! Name
  17.8,                                   ! Maximum Dry-Bulb Temperature {C}
  5.8,                                    ! Daily Dry-Bulb Temperature Range {deltaC}
  12.9,                                   ! Humidity Indicating Conditions at Maximum Dry-Bulb {BasedOnField A3}
  101217,                                 ! Barometric Pressure {Pa}
  3.4,                                    ! Wind Speed {m/s}
  320,                                    ! Wind Direction {deg}
  0,                                      ! Sky Clearness
  0,                                      ! Rain Indicator
  0,                                      ! Snow Indicator
  21,                                     ! Day of Month
  7,                                      ! Month
  SummerDesignDay,                        ! Day Type
  0,                                      ! Daylight Saving Time Indicator
  Wetbulb,                                ! Humidity Indicating Type
  ,                                       ! Humidity Indicating Day Schedule Name
  DefaultMultipliers,                     ! Dry-Bulb Temperature Range Modifier Type
  ,                                       ! Dry-Bulb Temperature Range Modifier Schedule Name
  ASHRAETau,                              ! Solar Model Indicator
  ,                                       ! Beam Solar Day Schedule Name
  ,                                       ! Diffuse Solar Day Schedule Name
  0.371,                                  ! ASHRAE Taub {dimensionless}
  2.194;                                  ! ASHRAE Taud {dimensionless}

OS:ComponentData,
  {c8699b54-096c-4496-a056-ba048c5746fa}, ! Handle
  Component Data 1,                       ! Name
  {e48f20ee-7bea-4414-95b2-a910ef2a6966}, ! UUID
  {d70f83be-1170-4008-8cb2-0b44d1c15f00}, ! Version UUID
  1366305620,                             ! Creation Timestamp
  1366305620,                             ! Version Timestamp
  {d4776f11-98d8-4ebf-bdc2-0ff09a97b5cf}; ! Name of Object 1

