
OS:Version,
  {0ff7e3b4-73d4-4b49-b070-419a37a5315b}, ! Handle
  0.9.3;                                  ! Version Identifier

OS:SizingPeriod:DesignDay,
  {c4c8f1f1-01a9-44e9-8fbe-a372468a6eb8}, ! Handle
  Missoula Ann Clg 2% Condns DB=>MWB,     ! Name
  29.8,                                   ! Maximum Dry-Bulb Temperature {C}
  17.5,                                   ! Daily Dry-Bulb Temperature Range {deltaC}
  15.9,                                   ! Humidity Indicating Conditions at Maximum Dry-Bulb {BasedOnField A3}
  90180,                                  ! Barometric Pressure {Pa}
  4.4,                                    ! Wind Speed {m/s}
  320,                                    ! Wind Direction {deg}
  0,                                      ! Sky Clearness
  0,                                      ! Rain Indicator
  0,                                      ! Snow Indicator
  21,                                     ! Day of Month
  7,                                      ! Month
  SummerDesignDay,                        ! Day Type
  0,                                      ! Daylight Saving Time Indicator
  Wetbulb,                                ! Humidity Indicating Type
  ,                                       ! Humidity Indicating Day Schedule Name
  DefaultMultipliers,                     ! Dry-Bulb Temperature Range Modifier Type
  ,                                       ! Dry-Bulb Temperature Range Modifier Schedule Name
  ASHRAETau,                              ! Solar Model Indicator
  ,                                       ! Beam Solar Day Schedule Name
  ,                                       ! Diffuse Solar Day Schedule Name
  0.357,                                  ! ASHRAE Taub {dimensionless}
  2.409;                                  ! ASHRAE Taud {dimensionless}

OS:ComponentData,
  {e0ba2b9a-df03-4fc2-865c-7d3d2f29808b}, ! Handle
  Component Data 1,                       ! Name
  {a5129f75-a07a-4b64-821b-0f2b247a6b25}, ! UUID
  {fde8d39a-9e70-4a0a-83e5-0adbd6630fda}, ! Version UUID
  1366308845,                             ! Creation Timestamp
  1366308845,                             ! Version Timestamp
  {c4c8f1f1-01a9-44e9-8fbe-a372468a6eb8}; ! Name of Object 1

