
OS:Version,
  {599500e6-1f1e-4924-a0ab-4bdd5e48bf2d}, ! Handle
  0.9.3;                                  ! Version Identifier

OS:SizingPeriod:DesignDay,
  {73e9f97e-6b39-4371-bafc-4ae4d1af5c60}, ! Handle
  North Platte Regional Ap Ann Clg 1% Condns WB=>MDB, ! Name
  30.3,                                   ! Maximum Dry-Bulb Temperature {C}
  14.5,                                   ! Daily Dry-Bulb Temperature Range {deltaC}
  22.6,                                   ! Humidity Indicating Conditions at Maximum Dry-Bulb {BasedOnField A3}
  91555,                                  ! Barometric Pressure {Pa}
  5.5,                                    ! Wind Speed {m/s}
  180,                                    ! Wind Direction {deg}
  0,                                      ! Sky Clearness
  0,                                      ! Rain Indicator
  0,                                      ! Snow Indicator
  21,                                     ! Day of Month
  7,                                      ! Month
  SummerDesignDay,                        ! Day Type
  0,                                      ! Daylight Saving Time Indicator
  Wetbulb,                                ! Humidity Indicating Type
  ,                                       ! Humidity Indicating Day Schedule Name
  DefaultMultipliers,                     ! Dry-Bulb Temperature Range Modifier Type
  ,                                       ! Dry-Bulb Temperature Range Modifier Schedule Name
  ASHRAETau,                              ! Solar Model Indicator
  ,                                       ! Beam Solar Day Schedule Name
  ,                                       ! Diffuse Solar Day Schedule Name
  0.417,                                  ! ASHRAE Taub {dimensionless}
  2.141;                                  ! ASHRAE Taud {dimensionless}

OS:ComponentData,
  {37e24537-88a9-4f9a-97ba-3e65825a19f5}, ! Handle
  Component Data 1,                       ! Name
  {a4b9c14d-36b0-4f6e-9eac-e121c82482ae}, ! UUID
  {53058455-c691-4031-a545-30a65c40d2d7}, ! Version UUID
  1366309166,                             ! Creation Timestamp
  1366309166,                             ! Version Timestamp
  {73e9f97e-6b39-4371-bafc-4ae4d1af5c60}; ! Name of Object 1

