
OS:Version,
  {4833e477-4ca5-4ce4-b81f-65840a786211}, ! Handle
  0.9.3;                                  ! Version Identifier

OS:SizingPeriod:DesignDay,
  {8d3cc0d8-e148-41e1-ad3c-ce00dcd2e8f3}, ! Handle
  Manhattan Rgnl Ann Clg 2% Condns DB=>MWB, ! Name
  33.9,                                   ! Maximum Dry-Bulb Temperature {C}
  12.8,                                   ! Daily Dry-Bulb Temperature Range {deltaC}
  23.8,                                   ! Humidity Indicating Conditions at Maximum Dry-Bulb {BasedOnField A3}
  97423,                                  ! Barometric Pressure {Pa}
  5.3,                                    ! Wind Speed {m/s}
  200,                                    ! Wind Direction {deg}
  0,                                      ! Sky Clearness
  0,                                      ! Rain Indicator
  0,                                      ! Snow Indicator
  21,                                     ! Day of Month
  7,                                      ! Month
  SummerDesignDay,                        ! Day Type
  0,                                      ! Daylight Saving Time Indicator
  Wetbulb,                                ! Humidity Indicating Type
  ,                                       ! Humidity Indicating Day Schedule Name
  DefaultMultipliers,                     ! Dry-Bulb Temperature Range Modifier Type
  ,                                       ! Dry-Bulb Temperature Range Modifier Schedule Name
  ASHRAETau,                              ! Solar Model Indicator
  ,                                       ! Beam Solar Day Schedule Name
  ,                                       ! Diffuse Solar Day Schedule Name
  0.424,                                  ! ASHRAE Taub {dimensionless}
  2.192;                                  ! ASHRAE Taud {dimensionless}

OS:ComponentData,
  {16c5b896-9a69-4c10-9aee-1cc8e933e61f}, ! Handle
  Component Data 1,                       ! Name
  {a674447d-3759-449a-86a4-56d423a01b34}, ! UUID
  {1016947f-c65d-4ebe-b706-72cc585cc961}, ! Version UUID
  1366307559,                             ! Creation Timestamp
  1366307559,                             ! Version Timestamp
  {8d3cc0d8-e148-41e1-ad3c-ce00dcd2e8f3}; ! Name of Object 1

