
OS:Version,
  {2aeca7df-bb1f-49dd-8e49-16330fd13a0b}, ! Handle
  0.9.3;                                  ! Version Identifier

OS:SizingPeriod:DesignDay,
  {c549183c-b0c7-4309-bf68-7be477a92ec3}, ! Handle
  Tekamah  Asos Ann Clg 1% Condns DP=>MDB, ! Name
  28.6,                                   ! Maximum Dry-Bulb Temperature {C}
  11.8,                                   ! Daily Dry-Bulb Temperature Range {deltaC}
  23.9,                                   ! Humidity Indicating Conditions at Maximum Dry-Bulb {BasedOnField A3}
  97633,                                  ! Barometric Pressure {Pa}
  6.6,                                    ! Wind Speed {m/s}
  180,                                    ! Wind Direction {deg}
  0,                                      ! Sky Clearness
  0,                                      ! Rain Indicator
  0,                                      ! Snow Indicator
  21,                                     ! Day of Month
  7,                                      ! Month
  SummerDesignDay,                        ! Day Type
  0,                                      ! Daylight Saving Time Indicator
  Dewpoint,                               ! Humidity Indicating Type
  ,                                       ! Humidity Indicating Day Schedule Name
  DefaultMultipliers,                     ! Dry-Bulb Temperature Range Modifier Type
  ,                                       ! Dry-Bulb Temperature Range Modifier Schedule Name
  ASHRAETau,                              ! Solar Model Indicator
  ,                                       ! Beam Solar Day Schedule Name
  ,                                       ! Diffuse Solar Day Schedule Name
  0.417,                                  ! ASHRAE Taub {dimensionless}
  2.204;                                  ! ASHRAE Taud {dimensionless}

OS:ComponentData,
  {e2e31d3f-0f51-4f94-8a31-622d41295599}, ! Handle
  Component Data 1,                       ! Name
  {d1370122-9ed3-490f-9943-0752aabb3720}, ! UUID
  {e081a86f-eca1-4719-ba12-7ab7abd7ef89}, ! Version UUID
  1366309207,                             ! Creation Timestamp
  1366309207,                             ! Version Timestamp
  {c549183c-b0c7-4309-bf68-7be477a92ec3}; ! Name of Object 1

