
OS:Version,
  {1f004794-abc1-463e-bc06-03d490330c7d}, ! Handle
  0.9.3;                                  ! Version Identifier

OS:SizingPeriod:DesignDay,
  {19c9f143-73d0-436b-a0a8-cad944737a1f}, ! Handle
  SAULT_STE. Ann Htg Wind 99.6% Condns WS=>MCDB, ! Name
  -7.3,                                   ! Maximum Dry-Bulb Temperature {C}
  0,                                      ! Daily Dry-Bulb Temperature Range {deltaC}
  -7.3,                                   ! Humidity Indicating Conditions at Maximum Dry-Bulb {BasedOnField A3}
  98698,                                  ! Barometric Pressure {Pa}
  11.3,                                   ! Wind Speed {m/s}
  90,                                     ! Wind Direction {deg}
  0,                                      ! Sky Clearness
  0,                                      ! Rain Indicator
  0,                                      ! Snow Indicator
  21,                                     ! Day of Month
  1,                                      ! Month
  WinterDesignDay,                        ! Day Type
  0,                                      ! Daylight Saving Time Indicator
  Wetbulb,                                ! Humidity Indicating Type
  ,                                       ! Humidity Indicating Day Schedule Name
  DefaultMultipliers,                     ! Dry-Bulb Temperature Range Modifier Type
  ,                                       ! Dry-Bulb Temperature Range Modifier Schedule Name
  ASHRAEClearSky;                         ! Solar Model Indicator

OS:ComponentData,
  {0b4f4146-4598-4e88-bde4-ab799402e3f4}, ! Handle
  Component Data 1,                       ! Name
  {9a199977-9a71-4b3a-bc5e-6afeb61b0c6b}, ! UUID
  {05ae7f2e-c6a9-4f78-bcaa-3096e42b6d6b}, ! Version UUID
  1366308109,                             ! Creation Timestamp
  1366308109,                             ! Version Timestamp
  {19c9f143-73d0-436b-a0a8-cad944737a1f}; ! Name of Object 1

