
OS:Version,
  {51aad2a8-ee1f-45b2-b350-9a9c96063f23}, ! Handle
  0.9.3;                                  ! Version Identifier

OS:SizingPeriod:DesignDay,
  {84f4963b-0964-45cd-9c41-241926ad6976}, ! Handle
  Mcconnell Afb Ann Hum_n 99.6% Condns DP=>MCDB, ! Name
  -13.6,                                  ! Maximum Dry-Bulb Temperature {C}
  0,                                      ! Daily Dry-Bulb Temperature Range {deltaC}
  -20.3,                                  ! Humidity Indicating Conditions at Maximum Dry-Bulb {BasedOnField A3}
  96449,                                  ! Barometric Pressure {Pa}
  4.6,                                    ! Wind Speed {m/s}
  0,                                      ! Wind Direction {deg}
  0,                                      ! Sky Clearness
  0,                                      ! Rain Indicator
  0,                                      ! Snow Indicator
  21,                                     ! Day of Month
  1,                                      ! Month
  WinterDesignDay,                        ! Day Type
  0,                                      ! Daylight Saving Time Indicator
  Dewpoint,                               ! Humidity Indicating Type
  ,                                       ! Humidity Indicating Day Schedule Name
  DefaultMultipliers,                     ! Dry-Bulb Temperature Range Modifier Type
  ,                                       ! Dry-Bulb Temperature Range Modifier Schedule Name
  ASHRAEClearSky;                         ! Solar Model Indicator

OS:ComponentData,
  {3ab735e4-29e2-426b-863c-da729e16956a}, ! Handle
  Component Data 1,                       ! Name
  {edcf4aaa-fef3-494e-a0c3-ba5764e4268e}, ! UUID
  {736b1f23-48dc-4332-bee0-4fff8e16b12c}, ! Version UUID
  1366307599,                             ! Creation Timestamp
  1366307599,                             ! Version Timestamp
  {84f4963b-0964-45cd-9c41-241926ad6976}; ! Name of Object 1

