
OS:Version,
  {5b9f1348-12c1-408e-afca-b4dc15969881}, ! Handle
  0.9.3;                                  ! Version Identifier

OS:SizingPeriod:DesignDay,
  {0116348d-f749-4332-8856-690cf6d5df00}, ! Handle
  Walla Walla City County Ap Ann Clg .4% Condns WB=>MDB, ! Name
  34,                                     ! Maximum Dry-Bulb Temperature {C}
  15.1,                                   ! Daily Dry-Bulb Temperature Range {deltaC}
  20.5,                                   ! Humidity Indicating Conditions at Maximum Dry-Bulb {BasedOnField A3}
  97132,                                  ! Barometric Pressure {Pa}
  3.8,                                    ! Wind Speed {m/s}
  240,                                    ! Wind Direction {deg}
  0,                                      ! Sky Clearness
  0,                                      ! Rain Indicator
  0,                                      ! Snow Indicator
  21,                                     ! Day of Month
  7,                                      ! Month
  SummerDesignDay,                        ! Day Type
  0,                                      ! Daylight Saving Time Indicator
  Wetbulb,                                ! Humidity Indicating Type
  ,                                       ! Humidity Indicating Day Schedule Name
  DefaultMultipliers,                     ! Dry-Bulb Temperature Range Modifier Type
  ,                                       ! Dry-Bulb Temperature Range Modifier Schedule Name
  ASHRAETau,                              ! Solar Model Indicator
  ,                                       ! Beam Solar Day Schedule Name
  ,                                       ! Diffuse Solar Day Schedule Name
  0.389,                                  ! ASHRAE Taub {dimensionless}
  2.256;                                  ! ASHRAE Taud {dimensionless}

OS:ComponentData,
  {8688297f-d9ee-4dcd-bfde-8f87100cac1c}, ! Handle
  Component Data 1,                       ! Name
  {e2bb99f5-8bb8-4e44-9733-812136884bf6}, ! UUID
  {217cd75d-53f1-44e0-8693-0c617d0c6304}, ! Version UUID
  1366311421,                             ! Creation Timestamp
  1366311421,                             ! Version Timestamp
  {0116348d-f749-4332-8856-690cf6d5df00}; ! Name of Object 1

