
OS:Version,
  {ef8cb9b6-f681-493e-a90c-25c6f542f6fd}, ! Handle
  0.9.3;                                  ! Version Identifier

OS:SizingPeriod:DesignDay,
  {73941fb6-f416-4dbb-99f6-9633bfe0907a}, ! Handle
  Orlando Executive Ap Ann Clg 2% Condns DB=>MWB, ! Name
  32.8,                                   ! Maximum Dry-Bulb Temperature {C}
  8.8,                                    ! Daily Dry-Bulb Temperature Range {deltaC}
  24.4,                                   ! Humidity Indicating Conditions at Maximum Dry-Bulb {BasedOnField A3}
  100929,                                 ! Barometric Pressure {Pa}
  3.7,                                    ! Wind Speed {m/s}
  270,                                    ! Wind Direction {deg}
  0,                                      ! Sky Clearness
  0,                                      ! Rain Indicator
  0,                                      ! Snow Indicator
  21,                                     ! Day of Month
  7,                                      ! Month
  SummerDesignDay,                        ! Day Type
  0,                                      ! Daylight Saving Time Indicator
  Wetbulb,                                ! Humidity Indicating Type
  ,                                       ! Humidity Indicating Day Schedule Name
  DefaultMultipliers,                     ! Dry-Bulb Temperature Range Modifier Type
  ,                                       ! Dry-Bulb Temperature Range Modifier Schedule Name
  ASHRAETau,                              ! Solar Model Indicator
  ,                                       ! Beam Solar Day Schedule Name
  ,                                       ! Diffuse Solar Day Schedule Name
  0.516,                                  ! ASHRAE Taub {dimensionless}
  1.924;                                  ! ASHRAE Taud {dimensionless}

OS:ComponentData,
  {b9e0041f-b0c7-4268-b703-7cbe4643b629}, ! Handle
  Component Data 1,                       ! Name
  {ee87fc9e-4964-49ec-a3c2-887e597703ed}, ! UUID
  {9a7f100a-6aef-4fab-85d8-0eb85cb9638a}, ! Version UUID
  1366306892,                             ! Creation Timestamp
  1366306892,                             ! Version Timestamp
  {73941fb6-f416-4dbb-99f6-9633bfe0907a}; ! Name of Object 1

