
OS:Version,
  {64776bb6-c6bf-426d-9bd2-6f1037a9f536}, ! Handle
  0.9.3;                                  ! Version Identifier

OS:SizingPeriod:DesignDay,
  {6f850ea0-2c5a-4263-ac62-b524b05a28df}, ! Handle
  Mobile Regional Ap Ann Clg 1% Condns DP=>MDB, ! Name
  28,                                     ! Maximum Dry-Bulb Temperature {C}
  9.4,                                    ! Daily Dry-Bulb Temperature Range {deltaC}
  25,                                     ! Humidity Indicating Conditions at Maximum Dry-Bulb {BasedOnField A3}
  100535,                                 ! Barometric Pressure {Pa}
  3.5,                                    ! Wind Speed {m/s}
  350,                                    ! Wind Direction {deg}
  0,                                      ! Sky Clearness
  0,                                      ! Rain Indicator
  0,                                      ! Snow Indicator
  21,                                     ! Day of Month
  7,                                      ! Month
  SummerDesignDay,                        ! Day Type
  0,                                      ! Daylight Saving Time Indicator
  Dewpoint,                               ! Humidity Indicating Type
  ,                                       ! Humidity Indicating Day Schedule Name
  DefaultMultipliers,                     ! Dry-Bulb Temperature Range Modifier Type
  ,                                       ! Dry-Bulb Temperature Range Modifier Schedule Name
  ASHRAETau,                              ! Solar Model Indicator
  ,                                       ! Beam Solar Day Schedule Name
  ,                                       ! Diffuse Solar Day Schedule Name
  0.538,                                  ! ASHRAE Taub {dimensionless}
  1.867;                                  ! ASHRAE Taud {dimensionless}

OS:ComponentData,
  {76e48903-090a-4113-97c9-1187ce91b59b}, ! Handle
  Component Data 1,                       ! Name
  {c30d87cf-524c-4d2a-ae23-ab7dccdd7fa8}, ! UUID
  {20c9defc-097b-425c-b150-bcbcdfce340b}, ! Version UUID
  1366305802,                             ! Creation Timestamp
  1366305802,                             ! Version Timestamp
  {6f850ea0-2c5a-4263-ac62-b524b05a28df}; ! Name of Object 1

