
OS:Version,
  {bc4c0e70-21a4-45f0-9df7-61ec8432c3f4}, ! Handle
  0.9.3;                                  ! Version Identifier

OS:SizingPeriod:DesignDay,
  {3f8842ad-ae29-4d29-b76e-76bcaad91cf0}, ! Handle
  Somerset Awos Ann Clg 2% Condns DB=>MWB, ! Name
  32.4,                                   ! Maximum Dry-Bulb Temperature {C}
  11.7,                                   ! Daily Dry-Bulb Temperature Range {deltaC}
  23.3,                                   ! Humidity Indicating Conditions at Maximum Dry-Bulb {BasedOnField A3}
  97971,                                  ! Barometric Pressure {Pa}
  2.3,                                    ! Wind Speed {m/s}
  250,                                    ! Wind Direction {deg}
  0,                                      ! Sky Clearness
  0,                                      ! Rain Indicator
  0,                                      ! Snow Indicator
  21,                                     ! Day of Month
  7,                                      ! Month
  SummerDesignDay,                        ! Day Type
  0,                                      ! Daylight Saving Time Indicator
  Wetbulb,                                ! Humidity Indicating Type
  ,                                       ! Humidity Indicating Day Schedule Name
  DefaultMultipliers,                     ! Dry-Bulb Temperature Range Modifier Type
  ,                                       ! Dry-Bulb Temperature Range Modifier Schedule Name
  ASHRAETau,                              ! Solar Model Indicator
  ,                                       ! Beam Solar Day Schedule Name
  ,                                       ! Diffuse Solar Day Schedule Name
  0.505,                                  ! ASHRAE Taub {dimensionless}
  1.881;                                  ! ASHRAE Taud {dimensionless}

OS:ComponentData,
  {4b462b59-a166-4c6d-8487-9e7e4a3aa359}, ! Handle
  Component Data 1,                       ! Name
  {e8c6d98d-4540-4f1d-a784-39a29daa6bb2}, ! UUID
  {c438ab46-9e51-4e89-8ffa-e8f690ae9d47}, ! Version UUID
  1366307687,                             ! Creation Timestamp
  1366307687,                             ! Version Timestamp
  {3f8842ad-ae29-4d29-b76e-76bcaad91cf0}; ! Name of Object 1

