
OS:Version,
  {7567cfa1-6c6d-4729-b5f8-1eec47391a13}, ! Handle
  0.9.3;                                  ! Version Identifier

OS:SizingPeriod:DesignDay,
  {6d64221a-21b7-4425-9a5f-0292e3a761d3}, ! Handle
  SYRACUSE Ann Hum_n 99.6% Condns DP=>MCDB, ! Name
  -18.1,                                  ! Maximum Dry-Bulb Temperature {C}
  0,                                      ! Daily Dry-Bulb Temperature Range {deltaC}
  -23.6,                                  ! Humidity Indicating Conditions at Maximum Dry-Bulb {BasedOnField A3}
  99844,                                  ! Barometric Pressure {Pa}
  3,                                      ! Wind Speed {m/s}
  90,                                     ! Wind Direction {deg}
  0,                                      ! Sky Clearness
  0,                                      ! Rain Indicator
  0,                                      ! Snow Indicator
  21,                                     ! Day of Month
  1,                                      ! Month
  WinterDesignDay,                        ! Day Type
  0,                                      ! Daylight Saving Time Indicator
  Dewpoint,                               ! Humidity Indicating Type
  ,                                       ! Humidity Indicating Day Schedule Name
  DefaultMultipliers,                     ! Dry-Bulb Temperature Range Modifier Type
  ,                                       ! Dry-Bulb Temperature Range Modifier Schedule Name
  ASHRAEClearSky;                         ! Solar Model Indicator

OS:ComponentData,
  {127e4f3c-6630-4683-bfd7-aa2510408edd}, ! Handle
  Component Data 1,                       ! Name
  {87a693e1-d08c-4cb1-836f-5d93b559e789}, ! UUID
  {6996a578-4a5b-4ff0-9ffd-c5f3d169e22f}, ! Version UUID
  1366309739,                             ! Creation Timestamp
  1366309739,                             ! Version Timestamp
  {6d64221a-21b7-4425-9a5f-0292e3a761d3}; ! Name of Object 1

