
OS:Version,
  {350bfad3-f607-4787-b531-23faa57ac1d7}, ! Handle
  0.9.3;                                  ! Version Identifier

OS:SizingPeriod:DesignDay,
  {9cd32f44-7aac-460e-b589-02327f3a6242}, ! Handle
  Miami Intl Ap Ann Htg 99% Condns DB,    ! Name
  10.9,                                   ! Maximum Dry-Bulb Temperature {C}
  0,                                      ! Daily Dry-Bulb Temperature Range {deltaC}
  10.9,                                   ! Humidity Indicating Conditions at Maximum Dry-Bulb {BasedOnField A3}
  101193,                                 ! Barometric Pressure {Pa}
  3.8,                                    ! Wind Speed {m/s}
  340,                                    ! Wind Direction {deg}
  0,                                      ! Sky Clearness
  0,                                      ! Rain Indicator
  0,                                      ! Snow Indicator
  21,                                     ! Day of Month
  1,                                      ! Month
  WinterDesignDay,                        ! Day Type
  0,                                      ! Daylight Saving Time Indicator
  Wetbulb,                                ! Humidity Indicating Type
  ,                                       ! Humidity Indicating Day Schedule Name
  DefaultMultipliers,                     ! Dry-Bulb Temperature Range Modifier Type
  ,                                       ! Dry-Bulb Temperature Range Modifier Schedule Name
  ASHRAEClearSky;                         ! Solar Model Indicator

OS:ComponentData,
  {1406f6fc-6f1c-465e-bd18-e7ce703cd809}, ! Handle
  Component Data 1,                       ! Name
  {03948f39-8613-400a-bfde-b705131715bf}, ! UUID
  {6d427817-2edc-4082-9735-c55f91039ed4}, ! Version UUID
  1366306866,                             ! Creation Timestamp
  1366306866,                             ! Version Timestamp
  {9cd32f44-7aac-460e-b589-02327f3a6242}; ! Name of Object 1

