
OS:Version,
  {6e82f150-6521-4c27-87cf-9b8986edf5ab}, ! Handle
  0.9.3;                                  ! Version Identifier

OS:SizingPeriod:DesignDay,
  {4826809b-f438-4974-a2e4-221c971cc24c}, ! Handle
  Yuma Ann Clg .4% Condns DB=>MWB,        ! Name
  43.8,                                   ! Maximum Dry-Bulb Temperature {C}
  13.1,                                   ! Daily Dry-Bulb Temperature Range {deltaC}
  23.1,                                   ! Humidity Indicating Conditions at Maximum Dry-Bulb {BasedOnField A3}
  100582,                                 ! Barometric Pressure {Pa}
  3.3,                                    ! Wind Speed {m/s}
  270,                                    ! Wind Direction {deg}
  0,                                      ! Sky Clearness
  0,                                      ! Rain Indicator
  0,                                      ! Snow Indicator
  21,                                     ! Day of Month
  7,                                      ! Month
  SummerDesignDay,                        ! Day Type
  0,                                      ! Daylight Saving Time Indicator
  Wetbulb,                                ! Humidity Indicating Type
  ,                                       ! Humidity Indicating Day Schedule Name
  DefaultMultipliers,                     ! Dry-Bulb Temperature Range Modifier Type
  ,                                       ! Dry-Bulb Temperature Range Modifier Schedule Name
  ASHRAETau,                              ! Solar Model Indicator
  ,                                       ! Beam Solar Day Schedule Name
  ,                                       ! Diffuse Solar Day Schedule Name
  0.533,                                  ! ASHRAE Taub {dimensionless}
  1.764;                                  ! ASHRAE Taud {dimensionless}

OS:ComponentData,
  {bf7fab8e-8264-41da-82e5-039b3cc38dd6}, ! Handle
  Component Data 1,                       ! Name
  {b6b4b1e8-0fa6-4b2b-acaf-14f4eedca8d0}, ! UUID
  {bc1a341b-c874-4c53-be81-55a3a119cd5f}, ! Version UUID
  1366306334,                             ! Creation Timestamp
  1366306334,                             ! Version Timestamp
  {4826809b-f438-4974-a2e4-221c971cc24c}; ! Name of Object 1

