
OS:Version,
  {e56aad67-4b7b-4626-83c3-6f70b295d66b}, ! Handle
  0.9.3;                                  ! Version Identifier

OS:SizingPeriod:DesignDay,
  {3f97e99c-747b-4842-9550-0d215af7b995}, ! Handle
  Rock Springs Arpt  Green Rive Ann Clg .4% Condns WB=>MDB, ! Name
  25.5,                                   ! Maximum Dry-Bulb Temperature {C}
  15.3,                                   ! Daily Dry-Bulb Temperature Range {deltaC}
  14.9,                                   ! Humidity Indicating Conditions at Maximum Dry-Bulb {BasedOnField A3}
  89875,                                  ! Barometric Pressure {Pa}
  5.3,                                    ! Wind Speed {m/s}
  260,                                    ! Wind Direction {deg}
  0,                                      ! Sky Clearness
  0,                                      ! Rain Indicator
  0,                                      ! Snow Indicator
  21,                                     ! Day of Month
  7,                                      ! Month
  SummerDesignDay,                        ! Day Type
  0,                                      ! Daylight Saving Time Indicator
  Wetbulb,                                ! Humidity Indicating Type
  ,                                       ! Humidity Indicating Day Schedule Name
  DefaultMultipliers,                     ! Dry-Bulb Temperature Range Modifier Type
  ,                                       ! Dry-Bulb Temperature Range Modifier Schedule Name
  ASHRAETau,                              ! Solar Model Indicator
  ,                                       ! Beam Solar Day Schedule Name
  ,                                       ! Diffuse Solar Day Schedule Name
  0.402,                                  ! ASHRAE Taub {dimensionless}
  1.99;                                   ! ASHRAE Taud {dimensionless}

OS:ComponentData,
  {e3e123f5-0198-43d2-a911-e231d5fdadeb}, ! Handle
  Component Data 1,                       ! Name
  {1f614b83-04ae-47e9-991c-b34c76a69739}, ! UUID
  {b98a1394-eff0-4ee8-acc0-96d295088fc3}, ! Version UUID
  1366311739,                             ! Creation Timestamp
  1366311739,                             ! Version Timestamp
  {3f97e99c-747b-4842-9550-0d215af7b995}; ! Name of Object 1

