
OS:Version,
  {f3b5e2fc-85f5-4f2d-a60d-f99cef5724ca}, ! Handle
  0.9.3;                                  ! Version Identifier

OS:SizingPeriod:DesignDay,
  {772d4ed6-92f5-4a50-82f2-3801840fbc2b}, ! Handle
  San Jose Intl Ap Ann Clg 1% Condns DB=>MWB, ! Name
  31.4,                                   ! Maximum Dry-Bulb Temperature {C}
  12.1,                                   ! Daily Dry-Bulb Temperature Range {deltaC}
  19,                                     ! Humidity Indicating Conditions at Maximum Dry-Bulb {BasedOnField A3}
  101133,                                 ! Barometric Pressure {Pa}
  4.5,                                    ! Wind Speed {m/s}
  320,                                    ! Wind Direction {deg}
  0,                                      ! Sky Clearness
  0,                                      ! Rain Indicator
  0,                                      ! Snow Indicator
  21,                                     ! Day of Month
  7,                                      ! Month
  SummerDesignDay,                        ! Day Type
  0,                                      ! Daylight Saving Time Indicator
  Wetbulb,                                ! Humidity Indicating Type
  ,                                       ! Humidity Indicating Day Schedule Name
  DefaultMultipliers,                     ! Dry-Bulb Temperature Range Modifier Type
  ,                                       ! Dry-Bulb Temperature Range Modifier Schedule Name
  ASHRAETau,                              ! Solar Model Indicator
  ,                                       ! Beam Solar Day Schedule Name
  ,                                       ! Diffuse Solar Day Schedule Name
  0.38,                                   ! ASHRAE Taub {dimensionless}
  2.366;                                  ! ASHRAE Taud {dimensionless}

OS:ComponentData,
  {323042d0-6d29-455c-848b-a4c46cd24aa1}, ! Handle
  Component Data 1,                       ! Name
  {e2968a5d-813c-4ae0-83a5-1075e6eb8e55}, ! UUID
  {655a4296-5c72-4b88-86da-5b87a7724496}, ! Version UUID
  1366306598,                             ! Creation Timestamp
  1366306598,                             ! Version Timestamp
  {772d4ed6-92f5-4a50-82f2-3801840fbc2b}; ! Name of Object 1

