
OS:Version,
  {502d9bdf-c531-4293-9198-6eca91284bd7}, ! Handle
  0.9.3;                                  ! Version Identifier

OS:SizingPeriod:DesignDay,
  {8d154f4e-19c0-40db-b47d-472570fa0968}, ! Handle
  SOUTH_BEND Ann Htg Wind 99.6% Condns WS=>MCDB, ! Name
  -5.8,                                   ! Maximum Dry-Bulb Temperature {C}
  0,                                      ! Daily Dry-Bulb Temperature Range {deltaC}
  -5.8,                                   ! Humidity Indicating Conditions at Maximum Dry-Bulb {BasedOnField A3}
  98522,                                  ! Barometric Pressure {Pa}
  12.2,                                   ! Wind Speed {m/s}
  230,                                    ! Wind Direction {deg}
  0,                                      ! Sky Clearness
  0,                                      ! Rain Indicator
  0,                                      ! Snow Indicator
  21,                                     ! Day of Month
  1,                                      ! Month
  WinterDesignDay,                        ! Day Type
  0,                                      ! Daylight Saving Time Indicator
  Wetbulb,                                ! Humidity Indicating Type
  ,                                       ! Humidity Indicating Day Schedule Name
  DefaultMultipliers,                     ! Dry-Bulb Temperature Range Modifier Type
  ,                                       ! Dry-Bulb Temperature Range Modifier Schedule Name
  ASHRAEClearSky;                         ! Solar Model Indicator

OS:ComponentData,
  {1c7597e8-d090-4505-ac9c-5da473f63553}, ! Handle
  Component Data 1,                       ! Name
  {2239406c-26aa-46f6-a7d9-208a64621f15}, ! UUID
  {e5f0c0c8-0f20-4e11-bdbd-97949f6559b3}, ! Version UUID
  1366307486,                             ! Creation Timestamp
  1366307486,                             ! Version Timestamp
  {8d154f4e-19c0-40db-b47d-472570fa0968}; ! Name of Object 1

