
OS:Version,
  {ea76c996-19d6-4e98-a61a-3313be95cff6}, ! Handle
  0.9.3;                                  ! Version Identifier

OS:SizingPeriod:DesignDay,
  {8f1020df-59f9-45e4-b953-cce3d03eca20}, ! Handle
  San Antonio Stinson Ann Clg 2% Condns WB=>MDB, ! Name
  31,                                     ! Maximum Dry-Bulb Temperature {C}
  11.7,                                   ! Daily Dry-Bulb Temperature Range {deltaC}
  25.4,                                   ! Humidity Indicating Conditions at Maximum Dry-Bulb {BasedOnField A3}
  99228,                                  ! Barometric Pressure {Pa}
  4.4,                                    ! Wind Speed {m/s}
  130,                                    ! Wind Direction {deg}
  0,                                      ! Sky Clearness
  0,                                      ! Rain Indicator
  0,                                      ! Snow Indicator
  21,                                     ! Day of Month
  8,                                      ! Month
  SummerDesignDay,                        ! Day Type
  0,                                      ! Daylight Saving Time Indicator
  Wetbulb,                                ! Humidity Indicating Type
  ,                                       ! Humidity Indicating Day Schedule Name
  DefaultMultipliers,                     ! Dry-Bulb Temperature Range Modifier Type
  ,                                       ! Dry-Bulb Temperature Range Modifier Schedule Name
  ASHRAETau,                              ! Solar Model Indicator
  ,                                       ! Beam Solar Day Schedule Name
  ,                                       ! Diffuse Solar Day Schedule Name
  0.454,                                  ! ASHRAE Taub {dimensionless}
  2.127;                                  ! ASHRAE Taud {dimensionless}

OS:ComponentData,
  {e5f35fdc-fe63-4c47-829c-98c6aaf7153e}, ! Handle
  Component Data 1,                       ! Name
  {9ebf3196-a5a9-4945-8025-6de79d0c38aa}, ! UUID
  {413efb51-4060-461c-8911-9417c08d206c}, ! Version UUID
  1366310886,                             ! Creation Timestamp
  1366310886,                             ! Version Timestamp
  {8f1020df-59f9-45e4-b953-cce3d03eca20}; ! Name of Object 1

