
OS:Version,
  {27b048d0-7368-4cb0-aa9e-ed5016d21795}, ! Handle
  0.9.3;                                  ! Version Identifier

OS:SizingPeriod:DesignDay,
  {24831a28-d432-4e95-8103-c6be1cef4307}, ! Handle
  Natchez Hardy Awos Ann Clg 2% Condns DP=>MDB, ! Name
  28.2,                                   ! Maximum Dry-Bulb Temperature {C}
  9.7,                                    ! Daily Dry-Bulb Temperature Range {deltaC}
  23.9,                                   ! Humidity Indicating Conditions at Maximum Dry-Bulb {BasedOnField A3}
  100332,                                 ! Barometric Pressure {Pa}
  2.6,                                    ! Wind Speed {m/s}
  240,                                    ! Wind Direction {deg}
  0,                                      ! Sky Clearness
  0,                                      ! Rain Indicator
  0,                                      ! Snow Indicator
  21,                                     ! Day of Month
  7,                                      ! Month
  SummerDesignDay,                        ! Day Type
  0,                                      ! Daylight Saving Time Indicator
  Dewpoint,                               ! Humidity Indicating Type
  ,                                       ! Humidity Indicating Day Schedule Name
  DefaultMultipliers,                     ! Dry-Bulb Temperature Range Modifier Type
  ,                                       ! Dry-Bulb Temperature Range Modifier Schedule Name
  ASHRAETau,                              ! Solar Model Indicator
  ,                                       ! Beam Solar Day Schedule Name
  ,                                       ! Diffuse Solar Day Schedule Name
  0.519,                                  ! ASHRAE Taub {dimensionless}
  1.903;                                  ! ASHRAE Taud {dimensionless}

OS:ComponentData,
  {59fdcb10-8db0-4e03-9a2b-40504ecb9f34}, ! Handle
  Component Data 1,                       ! Name
  {aa08f15c-0b22-4b72-8ec3-829255e6e8ba}, ! UUID
  {bf82b416-100f-4c08-b4fd-62ad88f822ef}, ! Version UUID
  1366308686,                             ! Creation Timestamp
  1366308686,                             ! Version Timestamp
  {24831a28-d432-4e95-8103-c6be1cef4307}; ! Name of Object 1

