
OS:Version,
  {bf66bbf6-ec55-4c04-8c8f-fea4bfc38a5d}, ! Handle
  0.9.3;                                  ! Version Identifier

OS:SizingPeriod:DesignDay,
  {ab7f425f-1905-49e9-bd5d-5573984bae64}, ! Handle
  Stillwater Rgnl Ann Htg Wind 99.6% Condns WS=>MCDB, ! Name
  11.9,                                   ! Maximum Dry-Bulb Temperature {C}
  0,                                      ! Daily Dry-Bulb Temperature Range {deltaC}
  11.9,                                   ! Humidity Indicating Conditions at Maximum Dry-Bulb {BasedOnField A3}
  97679,                                  ! Barometric Pressure {Pa}
  11.4,                                   ! Wind Speed {m/s}
  320,                                    ! Wind Direction {deg}
  0,                                      ! Sky Clearness
  0,                                      ! Rain Indicator
  0,                                      ! Snow Indicator
  21,                                     ! Day of Month
  1,                                      ! Month
  WinterDesignDay,                        ! Day Type
  0,                                      ! Daylight Saving Time Indicator
  Wetbulb,                                ! Humidity Indicating Type
  ,                                       ! Humidity Indicating Day Schedule Name
  DefaultMultipliers,                     ! Dry-Bulb Temperature Range Modifier Type
  ,                                       ! Dry-Bulb Temperature Range Modifier Schedule Name
  ASHRAEClearSky;                         ! Solar Model Indicator

OS:ComponentData,
  {cdf6ae84-2c23-4aac-a9c1-23e5c8d0d000}, ! Handle
  Component Data 1,                       ! Name
  {56ed62bc-85b5-4f57-9f63-2bcd34ec98c4}, ! UUID
  {387a8621-15dc-4e24-912c-cd2e20c3f052}, ! Version UUID
  1366309944,                             ! Creation Timestamp
  1366309944,                             ! Version Timestamp
  {ab7f425f-1905-49e9-bd5d-5573984bae64}; ! Name of Object 1

