
OS:Version,
  {21ee978a-782e-4e20-99b4-63515533bc35}, ! Handle
  0.9.3;                                  ! Version Identifier

OS:SizingPeriod:DesignDay,
  {3fe9ba76-e253-479b-8eeb-b3275f869190}, ! Handle
  SPRINGFIELD Ann Clg 1% Condns Enth=>MDB, ! Name
  31,                                     ! Maximum Dry-Bulb Temperature {C}
  10.7,                                   ! Daily Dry-Bulb Temperature Range {deltaC}
  79000,                                  ! Humidity Indicating Conditions at Maximum Dry-Bulb {BasedOnField A3}
  99099,                                  ! Barometric Pressure {Pa}
  4.6,                                    ! Wind Speed {m/s}
  230,                                    ! Wind Direction {deg}
  0,                                      ! Sky Clearness
  0,                                      ! Rain Indicator
  0,                                      ! Snow Indicator
  21,                                     ! Day of Month
  7,                                      ! Month
  SummerDesignDay,                        ! Day Type
  0,                                      ! Daylight Saving Time Indicator
  Enthalpy,                               ! Humidity Indicating Type
  ,                                       ! Humidity Indicating Day Schedule Name
  DefaultMultipliers,                     ! Dry-Bulb Temperature Range Modifier Type
  ,                                       ! Dry-Bulb Temperature Range Modifier Schedule Name
  ASHRAETau,                              ! Solar Model Indicator
  ,                                       ! Beam Solar Day Schedule Name
  ,                                       ! Diffuse Solar Day Schedule Name
  0.463,                                  ! ASHRAE Taub {dimensionless}
  2.022;                                  ! ASHRAE Taud {dimensionless}

OS:ComponentData,
  {e82be8d9-097b-4013-9599-114ef7f09fe4}, ! Handle
  Component Data 1,                       ! Name
  {497ae4f4-7be0-4291-82ab-6713fcb41ef0}, ! UUID
  {0da6e609-7068-4672-826e-d51f372f2f5d}, ! Version UUID
  1366307410,                             ! Creation Timestamp
  1366307410,                             ! Version Timestamp
  {3fe9ba76-e253-479b-8eeb-b3275f869190}; ! Name of Object 1

