
OS:Version,
  {78096c45-b262-42fa-b6e9-c2af04070af6}, ! Handle
  0.9.3;                                  ! Version Identifier

OS:SizingPeriod:DesignDay,
  {6932d341-1bd9-43f7-ba62-1372909bdc59}, ! Handle
  Portland International Ap Ann Clg 2% Condns DB=>MWB, ! Name
  28.6,                                   ! Maximum Dry-Bulb Temperature {C}
  12.2,                                   ! Daily Dry-Bulb Temperature Range {deltaC}
  18.5,                                   ! Humidity Indicating Conditions at Maximum Dry-Bulb {BasedOnField A3}
  101253,                                 ! Barometric Pressure {Pa}
  4.7,                                    ! Wind Speed {m/s}
  310,                                    ! Wind Direction {deg}
  0,                                      ! Sky Clearness
  0,                                      ! Rain Indicator
  0,                                      ! Snow Indicator
  21,                                     ! Day of Month
  8,                                      ! Month
  SummerDesignDay,                        ! Day Type
  0,                                      ! Daylight Saving Time Indicator
  Wetbulb,                                ! Humidity Indicating Type
  ,                                       ! Humidity Indicating Day Schedule Name
  DefaultMultipliers,                     ! Dry-Bulb Temperature Range Modifier Type
  ,                                       ! Dry-Bulb Temperature Range Modifier Schedule Name
  ASHRAETau,                              ! Solar Model Indicator
  ,                                       ! Beam Solar Day Schedule Name
  ,                                       ! Diffuse Solar Day Schedule Name
  0.358,                                  ! ASHRAE Taub {dimensionless}
  2.549;                                  ! ASHRAE Taud {dimensionless}

