
OS:Version,
  {8b2e06c5-1807-4b63-b460-358aa1848ffd}, ! Handle
  0.9.3;                                  ! Version Identifier

OS:SizingPeriod:DesignDay,
  {38566812-2711-4117-b1b2-ed9c6266d126}, ! Handle
  Mitchell  Awos Ann Clg 1% Condns WB=>MDB, ! Name
  30.2,                                   ! Maximum Dry-Bulb Temperature {C}
  12,                                     ! Daily Dry-Bulb Temperature Range {deltaC}
  24.1,                                   ! Humidity Indicating Conditions at Maximum Dry-Bulb {BasedOnField A3}
  96646,                                  ! Barometric Pressure {Pa}
  6,                                      ! Wind Speed {m/s}
  170,                                    ! Wind Direction {deg}
  0,                                      ! Sky Clearness
  0,                                      ! Rain Indicator
  0,                                      ! Snow Indicator
  21,                                     ! Day of Month
  7,                                      ! Month
  SummerDesignDay,                        ! Day Type
  0,                                      ! Daylight Saving Time Indicator
  Wetbulb,                                ! Humidity Indicating Type
  ,                                       ! Humidity Indicating Day Schedule Name
  DefaultMultipliers,                     ! Dry-Bulb Temperature Range Modifier Type
  ,                                       ! Dry-Bulb Temperature Range Modifier Schedule Name
  ASHRAETau,                              ! Solar Model Indicator
  ,                                       ! Beam Solar Day Schedule Name
  ,                                       ! Diffuse Solar Day Schedule Name
  0.397,                                  ! ASHRAE Taub {dimensionless}
  2.269;                                  ! ASHRAE Taud {dimensionless}

OS:ComponentData,
  {7eaa05f6-0d77-4a45-9a79-cc919954eb2d}, ! Handle
  Component Data 1,                       ! Name
  {7fad327a-cb8e-4ceb-b092-6049fde307f1}, ! UUID
  {314e5433-437b-418c-b293-ac8c20f26456}, ! Version UUID
  1366310413,                             ! Creation Timestamp
  1366310413,                             ! Version Timestamp
  {38566812-2711-4117-b1b2-ed9c6266d126}; ! Name of Object 1

