
OS:Version,
  {826a3da6-a797-4d21-b8af-2dfa54bc68d1}, ! Handle
  0.9.3;                                  ! Version Identifier

OS:SizingPeriod:DesignDay,
  {992e0c67-ea22-4f06-bff1-5ba6728b0fe6}, ! Handle
  Pellston Emmet County Ap Ann Htg Wind 99% Condns WS=>MCDB, ! Name
  -6,                                     ! Maximum Dry-Bulb Temperature {C}
  0,                                      ! Daily Dry-Bulb Temperature Range {deltaC}
  -6,                                     ! Humidity Indicating Conditions at Maximum Dry-Bulb {BasedOnField A3}
  98733,                                  ! Barometric Pressure {Pa}
  11.9,                                   ! Wind Speed {m/s}
  290,                                    ! Wind Direction {deg}
  0,                                      ! Sky Clearness
  0,                                      ! Rain Indicator
  0,                                      ! Snow Indicator
  21,                                     ! Day of Month
  1,                                      ! Month
  WinterDesignDay,                        ! Day Type
  0,                                      ! Daylight Saving Time Indicator
  Wetbulb,                                ! Humidity Indicating Type
  ,                                       ! Humidity Indicating Day Schedule Name
  DefaultMultipliers,                     ! Dry-Bulb Temperature Range Modifier Type
  ,                                       ! Dry-Bulb Temperature Range Modifier Schedule Name
  ASHRAEClearSky;                         ! Solar Model Indicator

OS:ComponentData,
  {548ec40f-b801-4444-a5c6-d99846bc9dc0}, ! Handle
  Component Data 1,                       ! Name
  {de51c373-08a0-410c-ac1f-164649798b6d}, ! UUID
  {3fffa4b3-343c-457f-a34d-5769b69f6e94}, ! Version UUID
  1366308087,                             ! Creation Timestamp
  1366308087,                             ! Version Timestamp
  {992e0c67-ea22-4f06-bff1-5ba6728b0fe6}; ! Name of Object 1

