
OS:Version,
  {80f8d1ee-0f03-4205-bccf-8ee758749399}, ! Handle
  0.9.3;                                  ! Version Identifier

OS:SizingPeriod:DesignDay,
  {0e601431-20b7-4c7f-b66e-a34c464aca1f}, ! Handle
  NORFOLK Ann Clg 1% Condns DP=>MDB,      ! Name
  28,                                     ! Maximum Dry-Bulb Temperature {C}
  11.9,                                   ! Daily Dry-Bulb Temperature Range {deltaC}
  22.4,                                   ! Humidity Indicating Conditions at Maximum Dry-Bulb {BasedOnField A3}
  95793,                                  ! Barometric Pressure {Pa}
  6.5,                                    ! Wind Speed {m/s}
  190,                                    ! Wind Direction {deg}
  0,                                      ! Sky Clearness
  0,                                      ! Rain Indicator
  0,                                      ! Snow Indicator
  21,                                     ! Day of Month
  7,                                      ! Month
  SummerDesignDay,                        ! Day Type
  0,                                      ! Daylight Saving Time Indicator
  Dewpoint,                               ! Humidity Indicating Type
  ,                                       ! Humidity Indicating Day Schedule Name
  DefaultMultipliers,                     ! Dry-Bulb Temperature Range Modifier Type
  ,                                       ! Dry-Bulb Temperature Range Modifier Schedule Name
  ASHRAETau,                              ! Solar Model Indicator
  ,                                       ! Beam Solar Day Schedule Name
  ,                                       ! Diffuse Solar Day Schedule Name
  0.402,                                  ! ASHRAE Taub {dimensionless}
  2.247;                                  ! ASHRAE Taud {dimensionless}

OS:ComponentData,
  {944fd6d3-b043-48ad-824e-3fc77330f0f9}, ! Handle
  Component Data 1,                       ! Name
  {f5b94a6f-afbb-4ce3-b8af-1490ef544016}, ! UUID
  {559314d3-553a-407e-956f-a90af8990325}, ! Version UUID
  1366309154,                             ! Creation Timestamp
  1366309154,                             ! Version Timestamp
  {0e601431-20b7-4c7f-b66e-a34c464aca1f}; ! Name of Object 1

