
OS:Version,
  {8fed6af0-a68f-4578-8ac4-a9f9e2b6b4c7}, ! Handle
  0.9.3;                                  ! Version Identifier

OS:SizingPeriod:DesignDay,
  {ee65484d-c2c9-471c-8ba8-b691383d971f}, ! Handle
  Nacogdoches  Awos Ann Hum_n 99.6% Condns DP=>MCDB, ! Name
  0.3,                                    ! Maximum Dry-Bulb Temperature {C}
  0,                                      ! Daily Dry-Bulb Temperature Range {deltaC}
  -11.3,                                  ! Humidity Indicating Conditions at Maximum Dry-Bulb {BasedOnField A3}
  100034,                                 ! Barometric Pressure {Pa}
  0.9,                                    ! Wind Speed {m/s}
  0,                                      ! Wind Direction {deg}
  0,                                      ! Sky Clearness
  0,                                      ! Rain Indicator
  0,                                      ! Snow Indicator
  21,                                     ! Day of Month
  12,                                     ! Month
  WinterDesignDay,                        ! Day Type
  0,                                      ! Daylight Saving Time Indicator
  Dewpoint,                               ! Humidity Indicating Type
  ,                                       ! Humidity Indicating Day Schedule Name
  DefaultMultipliers,                     ! Dry-Bulb Temperature Range Modifier Type
  ,                                       ! Dry-Bulb Temperature Range Modifier Schedule Name
  ASHRAEClearSky;                         ! Solar Model Indicator

OS:ComponentData,
  {d3717cf4-6aae-49e1-ac6f-242be171fd70}, ! Handle
  Component Data 1,                       ! Name
  {1dfd363f-1cc3-4774-b8b5-851e223bb820}, ! UUID
  {0133beb9-2f53-493f-8dce-bf01830f24fe}, ! Version UUID
  1366310840,                             ! Creation Timestamp
  1366310840,                             ! Version Timestamp
  {ee65484d-c2c9-471c-8ba8-b691383d971f}; ! Name of Object 1

