
OS:Version,
  {b90827a4-a11b-498d-9d0b-0dbe25b4c0da}, ! Handle
  0.9.3;                                  ! Version Identifier

OS:SizingPeriod:DesignDay,
  {26c3f387-7474-4bd8-807f-e712a29d87a6}, ! Handle
  SYRACUSE Ann Htg 99% Condns DB,         ! Name
  -16.2,                                  ! Maximum Dry-Bulb Temperature {C}
  0,                                      ! Daily Dry-Bulb Temperature Range {deltaC}
  -16.2,                                  ! Humidity Indicating Conditions at Maximum Dry-Bulb {BasedOnField A3}
  99844,                                  ! Barometric Pressure {Pa}
  3,                                      ! Wind Speed {m/s}
  90,                                     ! Wind Direction {deg}
  0,                                      ! Sky Clearness
  0,                                      ! Rain Indicator
  0,                                      ! Snow Indicator
  21,                                     ! Day of Month
  1,                                      ! Month
  WinterDesignDay,                        ! Day Type
  0,                                      ! Daylight Saving Time Indicator
  Wetbulb,                                ! Humidity Indicating Type
  ,                                       ! Humidity Indicating Day Schedule Name
  DefaultMultipliers,                     ! Dry-Bulb Temperature Range Modifier Type
  ,                                       ! Dry-Bulb Temperature Range Modifier Schedule Name
  ASHRAEClearSky;                         ! Solar Model Indicator

OS:ComponentData,
  {74364264-fee0-421d-83e6-d27f79ef6bae}, ! Handle
  Component Data 1,                       ! Name
  {b04d3218-f0b2-4cc6-835c-974f9c2116d0}, ! UUID
  {9d02e0b0-8181-4fac-9213-abd0c0fdb940}, ! Version UUID
  1366309739,                             ! Creation Timestamp
  1366309739,                             ! Version Timestamp
  {26c3f387-7474-4bd8-807f-e712a29d87a6}; ! Name of Object 1

