
OS:Version,
  {e50c2b02-54cc-42fc-b4a7-0a4320548851}, ! Handle
  0.9.3;                                  ! Version Identifier

OS:SizingPeriod:DesignDay,
  {f1552b77-652e-47b9-847f-2692d199f72e}, ! Handle
  Texarkana Webb Field Ann Htg Wind 99.6% Condns WS=>MCDB, ! Name
  10.3,                                   ! Maximum Dry-Bulb Temperature {C}
  0,                                      ! Daily Dry-Bulb Temperature Range {deltaC}
  10.3,                                   ! Humidity Indicating Conditions at Maximum Dry-Bulb {BasedOnField A3}
  100011,                                 ! Barometric Pressure {Pa}
  10.3,                                   ! Wind Speed {m/s}
  30,                                     ! Wind Direction {deg}
  0,                                      ! Sky Clearness
  0,                                      ! Rain Indicator
  0,                                      ! Snow Indicator
  21,                                     ! Day of Month
  1,                                      ! Month
  WinterDesignDay,                        ! Day Type
  0,                                      ! Daylight Saving Time Indicator
  Wetbulb,                                ! Humidity Indicating Type
  ,                                       ! Humidity Indicating Day Schedule Name
  DefaultMultipliers,                     ! Dry-Bulb Temperature Range Modifier Type
  ,                                       ! Dry-Bulb Temperature Range Modifier Schedule Name
  ASHRAEClearSky;                         ! Solar Model Indicator

OS:ComponentData,
  {04694e31-4777-4a4f-b9c8-05d824054396}, ! Handle
  Component Data 1,                       ! Name
  {4ffc7ed9-a27f-41d5-a8d1-d0b960459fac}, ! UUID
  {149076fe-9e94-4e74-8afb-f426cace45d6}, ! Version UUID
  1366306254,                             ! Creation Timestamp
  1366306254,                             ! Version Timestamp
  {f1552b77-652e-47b9-847f-2692d199f72e}; ! Name of Object 1

