
OS:Version,
  {3c2e0a2a-bc7a-4bdc-8270-c7dbf05f2a9c}, ! Handle
  0.9.3;                                  ! Version Identifier

OS:SizingPeriod:DesignDay,
  {87b9e850-39b0-4f8b-a03f-ea0b01ab23bf}, ! Handle
  Port Heiden Ann Clg .4% Condns WB=>MDB, ! Name
  17.5,                                   ! Maximum Dry-Bulb Temperature {C}
  5.4,                                    ! Daily Dry-Bulb Temperature Range {deltaC}
  14.1,                                   ! Humidity Indicating Conditions at Maximum Dry-Bulb {BasedOnField A3}
  100977,                                 ! Barometric Pressure {Pa}
  7.3,                                    ! Wind Speed {m/s}
  150,                                    ! Wind Direction {deg}
  0,                                      ! Sky Clearness
  0,                                      ! Rain Indicator
  0,                                      ! Snow Indicator
  21,                                     ! Day of Month
  8,                                      ! Month
  SummerDesignDay,                        ! Day Type
  0,                                      ! Daylight Saving Time Indicator
  Wetbulb,                                ! Humidity Indicating Type
  ,                                       ! Humidity Indicating Day Schedule Name
  DefaultMultipliers,                     ! Dry-Bulb Temperature Range Modifier Type
  ,                                       ! Dry-Bulb Temperature Range Modifier Schedule Name
  ASHRAETau,                              ! Solar Model Indicator
  ,                                       ! Beam Solar Day Schedule Name
  ,                                       ! Diffuse Solar Day Schedule Name
  0.375,                                  ! ASHRAE Taub {dimensionless}
  2.3;                                    ! ASHRAE Taud {dimensionless}

OS:ComponentData,
  {e66523ad-51a5-430a-9463-02d3cc4f97a9}, ! Handle
  Component Data 1,                       ! Name
  {364a58cb-5fad-4f0d-80bf-9b3326f897be}, ! UUID
  {b65ceb53-6db4-4072-b09f-2ab2892ae04b}, ! Version UUID
  1366305503,                             ! Creation Timestamp
  1366305503,                             ! Version Timestamp
  {87b9e850-39b0-4f8b-a03f-ea0b01ab23bf}; ! Name of Object 1

