
OS:Version,
  {b459d87d-afc2-4944-8e8c-5901c909e2ef}, ! Handle
  0.9.3;                                  ! Version Identifier

OS:SizingPeriod:DesignDay,
  {db1d48ae-3543-402a-916f-89799e570c76}, ! Handle
  Truckee Tahoe Ann Htg 99% Condns DB,    ! Name
  -13.9,                                  ! Maximum Dry-Bulb Temperature {C}
  0,                                      ! Daily Dry-Bulb Temperature Range {deltaC}
  -13.9,                                  ! Humidity Indicating Conditions at Maximum Dry-Bulb {BasedOnField A3}
  81509,                                  ! Barometric Pressure {Pa}
  0,                                      ! Wind Speed {m/s}
  170,                                    ! Wind Direction {deg}
  0,                                      ! Sky Clearness
  0,                                      ! Rain Indicator
  0,                                      ! Snow Indicator
  21,                                     ! Day of Month
  1,                                      ! Month
  WinterDesignDay,                        ! Day Type
  0,                                      ! Daylight Saving Time Indicator
  Wetbulb,                                ! Humidity Indicating Type
  ,                                       ! Humidity Indicating Day Schedule Name
  DefaultMultipliers,                     ! Dry-Bulb Temperature Range Modifier Type
  ,                                       ! Dry-Bulb Temperature Range Modifier Schedule Name
  ASHRAEClearSky;                         ! Solar Model Indicator

OS:ComponentData,
  {fa9abbf6-4029-4d61-b1e1-22ec588090af}, ! Handle
  Component Data 1,                       ! Name
  {12a26766-6004-41ea-ab3f-d9dcd4e0a7ae}, ! UUID
  {507e89e8-2909-40c6-a927-73fd7c33d394}, ! Version UUID
  1366306624,                             ! Creation Timestamp
  1366306624,                             ! Version Timestamp
  {db1d48ae-3543-402a-916f-89799e570c76}; ! Name of Object 1

