
OS:Version,
  {676d5a10-9353-4ee7-a3fb-28593e1917d2}, ! Handle
  0.9.3;                                  ! Version Identifier

OS:SizingPeriod:DesignDay,
  {94eff4f4-ef9a-47ff-aba1-d80f39894352}, ! Handle
  Sheridan Ann Clg .4% Condns WB=>MDB,    ! Name
  30.4,                                   ! Maximum Dry-Bulb Temperature {C}
  17.2,                                   ! Daily Dry-Bulb Temperature Range {deltaC}
  19.7,                                   ! Humidity Indicating Conditions at Maximum Dry-Bulb {BasedOnField A3}
  87619,                                  ! Barometric Pressure {Pa}
  3.7,                                    ! Wind Speed {m/s}
  310,                                    ! Wind Direction {deg}
  0,                                      ! Sky Clearness
  0,                                      ! Rain Indicator
  0,                                      ! Snow Indicator
  21,                                     ! Day of Month
  7,                                      ! Month
  SummerDesignDay,                        ! Day Type
  0,                                      ! Daylight Saving Time Indicator
  Wetbulb,                                ! Humidity Indicating Type
  ,                                       ! Humidity Indicating Day Schedule Name
  DefaultMultipliers,                     ! Dry-Bulb Temperature Range Modifier Type
  ,                                       ! Dry-Bulb Temperature Range Modifier Schedule Name
  ASHRAETau,                              ! Solar Model Indicator
  ,                                       ! Beam Solar Day Schedule Name
  ,                                       ! Diffuse Solar Day Schedule Name
  0.407,                                  ! ASHRAE Taub {dimensionless}
  2.098;                                  ! ASHRAE Taud {dimensionless}

OS:ComponentData,
  {7fbe8263-757c-4eaf-888c-fe3d2aea1f88}, ! Handle
  Component Data 1,                       ! Name
  {d5ea8172-e3a4-4648-b6c9-2242da5205e4}, ! UUID
  {33dc2acb-df57-4a0b-aadd-ebf9d9546cf3}, ! Version UUID
  1366311781,                             ! Creation Timestamp
  1366311781,                             ! Version Timestamp
  {94eff4f4-ef9a-47ff-aba1-d80f39894352}; ! Name of Object 1

