
OS:Version,
  {1e734366-87c4-4ad3-bd0d-2243da795e87}, ! Handle
  0.9.3;                                  ! Version Identifier

OS:SizingPeriod:DesignDay,
  {a60160e7-4ad8-49be-97f1-95d034a02e1e}, ! Handle
  Savannah Intl Ap Ann Clg .4% Condns DB=>MWB, ! Name
  35.3,                                   ! Maximum Dry-Bulb Temperature {C}
  10,                                     ! Daily Dry-Bulb Temperature Range {deltaC}
  25.1,                                   ! Humidity Indicating Conditions at Maximum Dry-Bulb {BasedOnField A3}
  101157,                                 ! Barometric Pressure {Pa}
  3.7,                                    ! Wind Speed {m/s}
  290,                                    ! Wind Direction {deg}
  0,                                      ! Sky Clearness
  0,                                      ! Rain Indicator
  0,                                      ! Snow Indicator
  21,                                     ! Day of Month
  7,                                      ! Month
  SummerDesignDay,                        ! Day Type
  0,                                      ! Daylight Saving Time Indicator
  Wetbulb,                                ! Humidity Indicating Type
  ,                                       ! Humidity Indicating Day Schedule Name
  DefaultMultipliers,                     ! Dry-Bulb Temperature Range Modifier Type
  ,                                       ! Dry-Bulb Temperature Range Modifier Schedule Name
  ASHRAETau,                              ! Solar Model Indicator
  ,                                       ! Beam Solar Day Schedule Name
  ,                                       ! Diffuse Solar Day Schedule Name
  0.558,                                  ! ASHRAE Taub {dimensionless}
  1.811;                                  ! ASHRAE Taud {dimensionless}

OS:ComponentData,
  {8b9c7ecf-ec05-4d92-902c-e95ff26cbb08}, ! Handle
  Component Data 1,                       ! Name
  {1a2ed373-81d1-41c7-978a-f71de8291f55}, ! UUID
  {06317c24-f803-4fa9-9319-1b0ae2b90901}, ! Version UUID
  1366307056,                             ! Creation Timestamp
  1366307056,                             ! Version Timestamp
  {a60160e7-4ad8-49be-97f1-95d034a02e1e}; ! Name of Object 1

