
OS:Version,
  {911e3290-375f-4d94-8d46-31fbcab5c7d3}, ! Handle
  0.9.3;                                  ! Version Identifier

OS:SizingPeriod:DesignDay,
  {ee927390-fdd1-479a-b8fa-530d76901592}, ! Handle
  Rutland State Ann Hum_n 99% Condns DP=>MCDB, ! Name
  -18,                                    ! Maximum Dry-Bulb Temperature {C}
  0,                                      ! Daily Dry-Bulb Temperature Range {deltaC}
  -26.4,                                  ! Humidity Indicating Conditions at Maximum Dry-Bulb {BasedOnField A3}
  98404,                                  ! Barometric Pressure {Pa}
  2.2,                                    ! Wind Speed {m/s}
  120,                                    ! Wind Direction {deg}
  0,                                      ! Sky Clearness
  0,                                      ! Rain Indicator
  0,                                      ! Snow Indicator
  21,                                     ! Day of Month
  1,                                      ! Month
  WinterDesignDay,                        ! Day Type
  0,                                      ! Daylight Saving Time Indicator
  Dewpoint,                               ! Humidity Indicating Type
  ,                                       ! Humidity Indicating Day Schedule Name
  DefaultMultipliers,                     ! Dry-Bulb Temperature Range Modifier Type
  ,                                       ! Dry-Bulb Temperature Range Modifier Schedule Name
  ASHRAEClearSky;                         ! Solar Model Indicator

OS:ComponentData,
  {d6b4f4e1-3dd6-4275-9d78-2df12833a791}, ! Handle
  Component Data 1,                       ! Name
  {d4d85b5a-90be-4e78-a30d-6e12b1b5cc7a}, ! UUID
  {8821d206-0d35-470d-bc52-99310f8341ec}, ! Version UUID
  1366311256,                             ! Creation Timestamp
  1366311256,                             ! Version Timestamp
  {ee927390-fdd1-479a-b8fa-530d76901592}; ! Name of Object 1

