
OS:Version,
  {7525b9f7-9b87-4342-b3f4-fd82163eb451}, ! Handle
  0.9.3;                                  ! Version Identifier

OS:SizingPeriod:DesignDay,
  {16aaead1-df52-47b0-af04-98e252992651}, ! Handle
  Tampa International Ap Ann Htg Wind 99% Condns WS=>MCDB, ! Name
  14.7,                                   ! Maximum Dry-Bulb Temperature {C}
  0,                                      ! Daily Dry-Bulb Temperature Range {deltaC}
  14.7,                                   ! Humidity Indicating Conditions at Maximum Dry-Bulb {BasedOnField A3}
  101253,                                 ! Barometric Pressure {Pa}
  8.4,                                    ! Wind Speed {m/s}
  10,                                     ! Wind Direction {deg}
  0,                                      ! Sky Clearness
  0,                                      ! Rain Indicator
  0,                                      ! Snow Indicator
  21,                                     ! Day of Month
  1,                                      ! Month
  WinterDesignDay,                        ! Day Type
  0,                                      ! Daylight Saving Time Indicator
  Wetbulb,                                ! Humidity Indicating Type
  ,                                       ! Humidity Indicating Day Schedule Name
  DefaultMultipliers,                     ! Dry-Bulb Temperature Range Modifier Type
  ,                                       ! Dry-Bulb Temperature Range Modifier Schedule Name
  ASHRAEClearSky;                         ! Solar Model Indicator

OS:ComponentData,
  {930de5d2-a45b-4339-9477-5ee2e75c3ce8}, ! Handle
  Component Data 1,                       ! Name
  {a9b50dad-2891-4bb4-808a-16a69e68969c}, ! UUID
  {63667079-2cff-4f8c-98ba-e45ec09be8bd}, ! Version UUID
  1366306936,                             ! Creation Timestamp
  1366306936,                             ! Version Timestamp
  {16aaead1-df52-47b0-af04-98e252992651}; ! Name of Object 1

