
OS:Version,
  {c7ca8c09-2d14-4c93-9abb-ed2eaadd4092}, ! Handle
  0.9.3;                                  ! Version Identifier

OS:SizingPeriod:DesignDay,
  {623139e5-c1cd-4755-8cc0-796e07155cbc}, ! Handle
  VICTORIA Ann Htg Wind 99% Condns WS=>MCDB, ! Name
  11.9,                                   ! Maximum Dry-Bulb Temperature {C}
  0,                                      ! Daily Dry-Bulb Temperature Range {deltaC}
  11.9,                                   ! Humidity Indicating Conditions at Maximum Dry-Bulb {BasedOnField A3}
  100941,                                 ! Barometric Pressure {Pa}
  11.4,                                   ! Wind Speed {m/s}
  0,                                      ! Wind Direction {deg}
  0,                                      ! Sky Clearness
  0,                                      ! Rain Indicator
  0,                                      ! Snow Indicator
  21,                                     ! Day of Month
  1,                                      ! Month
  WinterDesignDay,                        ! Day Type
  0,                                      ! Daylight Saving Time Indicator
  Wetbulb,                                ! Humidity Indicating Type
  ,                                       ! Humidity Indicating Day Schedule Name
  DefaultMultipliers,                     ! Dry-Bulb Temperature Range Modifier Type
  ,                                       ! Dry-Bulb Temperature Range Modifier Schedule Name
  ASHRAEClearSky;                         ! Solar Model Indicator

OS:ComponentData,
  {971cd71d-5b8a-4d41-b2ca-ba3e0a256ac4}, ! Handle
  Component Data 1,                       ! Name
  {9bb62084-73d0-460e-8df2-57ba1bbaa463}, ! UUID
  {b36b4aa9-6035-4044-b652-a0b8d6bf79f1}, ! Version UUID
  1366310907,                             ! Creation Timestamp
  1366310907,                             ! Version Timestamp
  {623139e5-c1cd-4755-8cc0-796e07155cbc}; ! Name of Object 1

