
OS:Version,
  {63c132d5-467f-481a-b5f6-32724d2b0789}, ! Handle
  0.9.3;                                  ! Version Identifier

OS:SizingPeriod:DesignDay,
  {ff507985-9cd9-405c-b8eb-bd90bee3013d}, ! Handle
  San Jose Intl Ap Ann Htg 99.6% Condns DB, ! Name
  2.1,                                    ! Maximum Dry-Bulb Temperature {C}
  0,                                      ! Daily Dry-Bulb Temperature Range {deltaC}
  2.1,                                    ! Humidity Indicating Conditions at Maximum Dry-Bulb {BasedOnField A3}
  101133,                                 ! Barometric Pressure {Pa}
  0.8,                                    ! Wind Speed {m/s}
  150,                                    ! Wind Direction {deg}
  0,                                      ! Sky Clearness
  0,                                      ! Rain Indicator
  0,                                      ! Snow Indicator
  21,                                     ! Day of Month
  12,                                     ! Month
  WinterDesignDay,                        ! Day Type
  0,                                      ! Daylight Saving Time Indicator
  Wetbulb,                                ! Humidity Indicating Type
  ,                                       ! Humidity Indicating Day Schedule Name
  DefaultMultipliers,                     ! Dry-Bulb Temperature Range Modifier Type
  ,                                       ! Dry-Bulb Temperature Range Modifier Schedule Name
  ASHRAEClearSky;                         ! Solar Model Indicator

OS:ComponentData,
  {5f79af40-b9f9-4570-9cc2-bacd6102a13b}, ! Handle
  Component Data 1,                       ! Name
  {afb6d1bb-02ba-43cb-965b-d9185881891e}, ! UUID
  {e4471db5-2223-4813-bfb5-288b4762ad99}, ! Version UUID
  1366306597,                             ! Creation Timestamp
  1366306597,                             ! Version Timestamp
  {ff507985-9cd9-405c-b8eb-bd90bee3013d}; ! Name of Object 1

