
OS:Version,
  {10f4ab42-cde6-424c-b4b7-6a88c345f70e}, ! Handle
  0.9.3;                                  ! Version Identifier

OS:SizingPeriod:DesignDay,
  {b7b517c1-6bf8-4686-9a47-18f435c8b967}, ! Handle
  Sterling/Washington Du Ann Hum_n 99.6% Condns DP=>MCDB, ! Name
  -9,                                     ! Maximum Dry-Bulb Temperature {C}
  0,                                      ! Daily Dry-Bulb Temperature Range {deltaC}
  -19.5,                                  ! Humidity Indicating Conditions at Maximum Dry-Bulb {BasedOnField A3}
  100153,                                 ! Barometric Pressure {Pa}
  2.7,                                    ! Wind Speed {m/s}
  310,                                    ! Wind Direction {deg}
  0,                                      ! Sky Clearness
  0,                                      ! Rain Indicator
  0,                                      ! Snow Indicator
  21,                                     ! Day of Month
  1,                                      ! Month
  WinterDesignDay,                        ! Day Type
  0,                                      ! Daylight Saving Time Indicator
  Dewpoint,                               ! Humidity Indicating Type
  ,                                       ! Humidity Indicating Day Schedule Name
  DefaultMultipliers,                     ! Dry-Bulb Temperature Range Modifier Type
  ,                                       ! Dry-Bulb Temperature Range Modifier Schedule Name
  ASHRAEClearSky;                         ! Solar Model Indicator

OS:ComponentData,
  {d14e8123-979d-4d87-8b85-963dfbec4097}, ! Handle
  Component Data 1,                       ! Name
  {4349fb59-0014-45f5-bc86-ae222f3d1b4e}, ! UUID
  {076e2bd0-8807-413e-b92c-b703a2926fce}, ! Version UUID
  1366311208,                             ! Creation Timestamp
  1366311208,                             ! Version Timestamp
  {b7b517c1-6bf8-4686-9a47-18f435c8b967}; ! Name of Object 1

