
OS:Version,
  {19ba0a44-da78-42f7-a1bf-0c31c2d47b8e}, ! Handle
  0.9.3;                                  ! Version Identifier

OS:SizingPeriod:DesignDay,
  {6d4d2fb6-e597-438c-98c9-36cb3d727162}, ! Handle
  Quincy Muni Baldwin Fld Ann Clg 1% Condns WB=>MDB, ! Name
  31,                                     ! Maximum Dry-Bulb Temperature {C}
  10.4,                                   ! Daily Dry-Bulb Temperature Range {deltaC}
  25.2,                                   ! Humidity Indicating Conditions at Maximum Dry-Bulb {BasedOnField A3}
  98557,                                  ! Barometric Pressure {Pa}
  4.8,                                    ! Wind Speed {m/s}
  220,                                    ! Wind Direction {deg}
  0,                                      ! Sky Clearness
  0,                                      ! Rain Indicator
  0,                                      ! Snow Indicator
  21,                                     ! Day of Month
  7,                                      ! Month
  SummerDesignDay,                        ! Day Type
  0,                                      ! Daylight Saving Time Indicator
  Wetbulb,                                ! Humidity Indicating Type
  ,                                       ! Humidity Indicating Day Schedule Name
  DefaultMultipliers,                     ! Dry-Bulb Temperature Range Modifier Type
  ,                                       ! Dry-Bulb Temperature Range Modifier Schedule Name
  ASHRAETau,                              ! Solar Model Indicator
  ,                                       ! Beam Solar Day Schedule Name
  ,                                       ! Diffuse Solar Day Schedule Name
  0.446,                                  ! ASHRAE Taub {dimensionless}
  2.091;                                  ! ASHRAE Taud {dimensionless}

OS:ComponentData,
  {839f0070-6c7d-4d60-906f-1a7beae3aefc}, ! Handle
  Component Data 1,                       ! Name
  {0f3e2149-b599-435a-b2db-d445d78ac878}, ! UUID
  {a548c776-6e30-4b7c-b83c-09030998b567}, ! Version UUID
  1366307389,                             ! Creation Timestamp
  1366307389,                             ! Version Timestamp
  {6d4d2fb6-e597-438c-98c9-36cb3d727162}; ! Name of Object 1

