
OS:Version,
  {fb9c4d0a-2b08-43c8-9e6a-daf44231f45a}, ! Handle
  0.9.3;                                  ! Version Identifier

OS:SizingPeriod:DesignDay,
  {bf9eabfd-1275-418c-9c63-19dfa38b7d4a}, ! Handle
  Orlando Sanford Airport Ann Clg 2% Condns DP=>MDB, ! Name
  27.6,                                   ! Maximum Dry-Bulb Temperature {C}
  9.6,                                    ! Daily Dry-Bulb Temperature Range {deltaC}
  23.7,                                   ! Humidity Indicating Conditions at Maximum Dry-Bulb {BasedOnField A3}
  101121,                                 ! Barometric Pressure {Pa}
  3.7,                                    ! Wind Speed {m/s}
  250,                                    ! Wind Direction {deg}
  0,                                      ! Sky Clearness
  0,                                      ! Rain Indicator
  0,                                      ! Snow Indicator
  21,                                     ! Day of Month
  7,                                      ! Month
  SummerDesignDay,                        ! Day Type
  0,                                      ! Daylight Saving Time Indicator
  Dewpoint,                               ! Humidity Indicating Type
  ,                                       ! Humidity Indicating Day Schedule Name
  DefaultMultipliers,                     ! Dry-Bulb Temperature Range Modifier Type
  ,                                       ! Dry-Bulb Temperature Range Modifier Schedule Name
  ASHRAETau,                              ! Solar Model Indicator
  ,                                       ! Beam Solar Day Schedule Name
  ,                                       ! Diffuse Solar Day Schedule Name
  0.516,                                  ! ASHRAE Taub {dimensionless}
  1.929;                                  ! ASHRAE Taud {dimensionless}

OS:ComponentData,
  {43a3d1d3-d315-40c2-9e68-7c5a79e744a4}, ! Handle
  Component Data 1,                       ! Name
  {1eb275f6-cdf2-4ee7-88ae-aab91f11bb4d}, ! UUID
  {998f3cee-add9-445e-bf73-3c90b57b82ae}, ! Version UUID
  1366306885,                             ! Creation Timestamp
  1366306885,                             ! Version Timestamp
  {bf9eabfd-1275-418c-9c63-19dfa38b7d4a}; ! Name of Object 1

