
OS:Version,
  {519ed099-b170-404c-86c9-e7a78eed360d}, ! Handle
  0.9.3;                                  ! Version Identifier

OS:SizingPeriod:DesignDay,
  {3da56d96-b6e0-4ed6-84ff-5e72db0a5b51}, ! Handle
  Oakland Ann Clg 2% Condns DP=>MDB,      ! Name
  19.9,                                   ! Maximum Dry-Bulb Temperature {C}
  7.4,                                    ! Daily Dry-Bulb Temperature Range {deltaC}
  16.2,                                   ! Humidity Indicating Conditions at Maximum Dry-Bulb {BasedOnField A3}
  101313,                                 ! Barometric Pressure {Pa}
  4.9,                                    ! Wind Speed {m/s}
  290,                                    ! Wind Direction {deg}
  0,                                      ! Sky Clearness
  0,                                      ! Rain Indicator
  0,                                      ! Snow Indicator
  21,                                     ! Day of Month
  8,                                      ! Month
  SummerDesignDay,                        ! Day Type
  0,                                      ! Daylight Saving Time Indicator
  Dewpoint,                               ! Humidity Indicating Type
  ,                                       ! Humidity Indicating Day Schedule Name
  DefaultMultipliers,                     ! Dry-Bulb Temperature Range Modifier Type
  ,                                       ! Dry-Bulb Temperature Range Modifier Schedule Name
  ASHRAETau,                              ! Solar Model Indicator
  ,                                       ! Beam Solar Day Schedule Name
  ,                                       ! Diffuse Solar Day Schedule Name
  0.367,                                  ! ASHRAE Taub {dimensionless}
  2.428;                                  ! ASHRAE Taud {dimensionless}

OS:ComponentData,
  {e7c190fe-db1e-46fc-957c-2aa664da842f}, ! Handle
  Component Data 1,                       ! Name
  {0339ef19-6867-40b9-bb46-69f173230cc5}, ! UUID
  {a8e781d2-dce0-4b90-9db1-8593001a80c2}, ! Version UUID
  1366306521,                             ! Creation Timestamp
  1366306521,                             ! Version Timestamp
  {3da56d96-b6e0-4ed6-84ff-5e72db0a5b51}; ! Name of Object 1

