
OS:Version,
  {b9a7c0d5-92b1-4ef9-8405-31358ad6124d}, ! Handle
  0.9.3;                                  ! Version Identifier

OS:SizingPeriod:DesignDay,
  {ee97767d-bfee-4ecc-a08b-1f0a43fe8bc5}, ! Handle
  Mobile Regional Ap Ann Clg 2% Condns DP=>MDB, ! Name
  27.6,                                   ! Maximum Dry-Bulb Temperature {C}
  9.4,                                    ! Daily Dry-Bulb Temperature Range {deltaC}
  24.5,                                   ! Humidity Indicating Conditions at Maximum Dry-Bulb {BasedOnField A3}
  100535,                                 ! Barometric Pressure {Pa}
  3.5,                                    ! Wind Speed {m/s}
  350,                                    ! Wind Direction {deg}
  0,                                      ! Sky Clearness
  0,                                      ! Rain Indicator
  0,                                      ! Snow Indicator
  21,                                     ! Day of Month
  7,                                      ! Month
  SummerDesignDay,                        ! Day Type
  0,                                      ! Daylight Saving Time Indicator
  Dewpoint,                               ! Humidity Indicating Type
  ,                                       ! Humidity Indicating Day Schedule Name
  DefaultMultipliers,                     ! Dry-Bulb Temperature Range Modifier Type
  ,                                       ! Dry-Bulb Temperature Range Modifier Schedule Name
  ASHRAETau,                              ! Solar Model Indicator
  ,                                       ! Beam Solar Day Schedule Name
  ,                                       ! Diffuse Solar Day Schedule Name
  0.538,                                  ! ASHRAE Taub {dimensionless}
  1.867;                                  ! ASHRAE Taud {dimensionless}

OS:ComponentData,
  {739a58bc-94b0-4ff2-b476-ffd0069cd4c4}, ! Handle
  Component Data 1,                       ! Name
  {2e3d6240-c1cf-45a0-8875-ad4709f556ad}, ! UUID
  {643c5ace-42bb-4452-86aa-46ff518c869f}, ! Version UUID
  1366305805,                             ! Creation Timestamp
  1366305805,                             ! Version Timestamp
  {ee97767d-bfee-4ecc-a08b-1f0a43fe8bc5}; ! Name of Object 1

