
OS:Version,
  {5b51daf0-f934-403a-a3fa-328150bd872b}, ! Handle
  0.9.3;                                  ! Version Identifier

OS:SizingPeriod:DesignDay,
  {5108e17d-2a5a-4eee-9131-1557916ea0c7}, ! Handle
  Valentine Miller Field Ann Clg .4% Condns DB=>MWB, ! Name
  36.5,                                   ! Maximum Dry-Bulb Temperature {C}
  14.7,                                   ! Daily Dry-Bulb Temperature Range {deltaC}
  20.7,                                   ! Humidity Indicating Conditions at Maximum Dry-Bulb {BasedOnField A3}
  92199,                                  ! Barometric Pressure {Pa}
  6.5,                                    ! Wind Speed {m/s}
  170,                                    ! Wind Direction {deg}
  0,                                      ! Sky Clearness
  0,                                      ! Rain Indicator
  0,                                      ! Snow Indicator
  21,                                     ! Day of Month
  7,                                      ! Month
  SummerDesignDay,                        ! Day Type
  0,                                      ! Daylight Saving Time Indicator
  Wetbulb,                                ! Humidity Indicating Type
  ,                                       ! Humidity Indicating Day Schedule Name
  DefaultMultipliers,                     ! Dry-Bulb Temperature Range Modifier Type
  ,                                       ! Dry-Bulb Temperature Range Modifier Schedule Name
  ASHRAETau,                              ! Solar Model Indicator
  ,                                       ! Beam Solar Day Schedule Name
  ,                                       ! Diffuse Solar Day Schedule Name
  0.416,                                  ! ASHRAE Taub {dimensionless}
  2.126;                                  ! ASHRAE Taud {dimensionless}

