
OS:Version,
  {cce45a06-7ef2-4da6-8730-b2ae24c2305f}, ! Handle
  0.9.3;                                  ! Version Identifier

OS:SizingPeriod:DesignDay,
  {bbfb1bb5-8286-4a39-9dd8-fba2c4be8bc7}, ! Handle
  St Petersburg Clear Ann Clg .4% Condns WB=>MDB, ! Name
  31.4,                                   ! Maximum Dry-Bulb Temperature {C}
  7.1,                                    ! Daily Dry-Bulb Temperature Range {deltaC}
  27.9,                                   ! Humidity Indicating Conditions at Maximum Dry-Bulb {BasedOnField A3}
  101289,                                 ! Barometric Pressure {Pa}
  4.1,                                    ! Wind Speed {m/s}
  320,                                    ! Wind Direction {deg}
  0,                                      ! Sky Clearness
  0,                                      ! Rain Indicator
  0,                                      ! Snow Indicator
  21,                                     ! Day of Month
  8,                                      ! Month
  SummerDesignDay,                        ! Day Type
  0,                                      ! Daylight Saving Time Indicator
  Wetbulb,                                ! Humidity Indicating Type
  ,                                       ! Humidity Indicating Day Schedule Name
  DefaultMultipliers,                     ! Dry-Bulb Temperature Range Modifier Type
  ,                                       ! Dry-Bulb Temperature Range Modifier Schedule Name
  ASHRAETau,                              ! Solar Model Indicator
  ,                                       ! Beam Solar Day Schedule Name
  ,                                       ! Diffuse Solar Day Schedule Name
  0.49,                                   ! ASHRAE Taub {dimensionless}
  2.029;                                  ! ASHRAE Taud {dimensionless}

OS:ComponentData,
  {0029df8d-7680-4044-8d09-3af0fb49404a}, ! Handle
  Component Data 1,                       ! Name
  {98d06630-c2bc-447f-bc2b-4f32031da18b}, ! UUID
  {ab21f6ae-62d5-46c5-96b6-5145fe308702}, ! Version UUID
  1366306916,                             ! Creation Timestamp
  1366306916,                             ! Version Timestamp
  {bbfb1bb5-8286-4a39-9dd8-fba2c4be8bc7}; ! Name of Object 1

