
OS:Version,
  {29112cc5-139f-49b3-8ff9-b6b43416789f}, ! Handle
  0.9.3;                                  ! Version Identifier

OS:SizingPeriod:DesignDay,
  {8635f399-a724-484b-849f-42364c254930}, ! Handle
  Mobridge Ann Clg 2% Condns WB=>MDB,     ! Name
  28.6,                                   ! Maximum Dry-Bulb Temperature {C}
  12.5,                                   ! Daily Dry-Bulb Temperature Range {deltaC}
  21.7,                                   ! Humidity Indicating Conditions at Maximum Dry-Bulb {BasedOnField A3}
  95369,                                  ! Barometric Pressure {Pa}
  5.7,                                    ! Wind Speed {m/s}
  150,                                    ! Wind Direction {deg}
  0,                                      ! Sky Clearness
  0,                                      ! Rain Indicator
  0,                                      ! Snow Indicator
  21,                                     ! Day of Month
  7,                                      ! Month
  SummerDesignDay,                        ! Day Type
  0,                                      ! Daylight Saving Time Indicator
  Wetbulb,                                ! Humidity Indicating Type
  ,                                       ! Humidity Indicating Day Schedule Name
  DefaultMultipliers,                     ! Dry-Bulb Temperature Range Modifier Type
  ,                                       ! Dry-Bulb Temperature Range Modifier Schedule Name
  ASHRAETau,                              ! Solar Model Indicator
  ,                                       ! Beam Solar Day Schedule Name
  ,                                       ! Diffuse Solar Day Schedule Name
  0.406,                                  ! ASHRAE Taub {dimensionless}
  2.187;                                  ! ASHRAE Taud {dimensionless}

OS:ComponentData,
  {ac121dee-6535-4b8d-bced-1898ec9854e7}, ! Handle
  Component Data 1,                       ! Name
  {489882f4-da3d-4502-bb1e-372a741997e6}, ! UUID
  {8d3deb7c-d8b6-415b-b3f6-94db11448a43}, ! Version UUID
  1366310418,                             ! Creation Timestamp
  1366310418,                             ! Version Timestamp
  {8635f399-a724-484b-849f-42364c254930}; ! Name of Object 1

