
OS:Version,
  {6a01b631-0c24-4048-b730-9d1d0433fbeb}, ! Handle
  0.9.3;                                  ! Version Identifier

OS:SizingPeriod:DesignDay,
  {65f710b3-a257-4451-930f-cc4283de034e}, ! Handle
  Oceana Nas Ann Clg .4% Condns WB=>MDB,  ! Name
  31.5,                                   ! Maximum Dry-Bulb Temperature {C}
  8.4,                                    ! Daily Dry-Bulb Temperature Range {deltaC}
  26.3,                                   ! Humidity Indicating Conditions at Maximum Dry-Bulb {BasedOnField A3}
  101229,                                 ! Barometric Pressure {Pa}
  4.4,                                    ! Wind Speed {m/s}
  220,                                    ! Wind Direction {deg}
  0,                                      ! Sky Clearness
  0,                                      ! Rain Indicator
  0,                                      ! Snow Indicator
  21,                                     ! Day of Month
  7,                                      ! Month
  SummerDesignDay,                        ! Day Type
  0,                                      ! Daylight Saving Time Indicator
  Wetbulb,                                ! Humidity Indicating Type
  ,                                       ! Humidity Indicating Day Schedule Name
  DefaultMultipliers,                     ! Dry-Bulb Temperature Range Modifier Type
  ,                                       ! Dry-Bulb Temperature Range Modifier Schedule Name
  ASHRAETau,                              ! Solar Model Indicator
  ,                                       ! Beam Solar Day Schedule Name
  ,                                       ! Diffuse Solar Day Schedule Name
  0.585,                                  ! ASHRAE Taub {dimensionless}
  1.719;                                  ! ASHRAE Taud {dimensionless}

OS:ComponentData,
  {e4011175-7bea-444e-ae2c-cb8653f3116c}, ! Handle
  Component Data 1,                       ! Name
  {bf492cbc-1ad5-4ab4-9dd7-6f5c3e273604}, ! UUID
  {84369a6e-c4ca-474b-9389-3f7bdb780c9f}, ! Version UUID
  1366311145,                             ! Creation Timestamp
  1366311145,                             ! Version Timestamp
  {65f710b3-a257-4451-930f-cc4283de034e}; ! Name of Object 1

