
OS:Version,
  {dc4f74b7-12a0-4aec-a421-ca67d9466fdc}, ! Handle
  0.9.3;                                  ! Version Identifier

OS:SizingPeriod:DesignDay,
  {1fbc1fc0-f98b-4dcc-83a1-72271b79eed7}, ! Handle
  Rogers  Awos Ann Hum_n 99% Condns DP=>MCDB, ! Name
  -7.2,                                   ! Maximum Dry-Bulb Temperature {C}
  0,                                      ! Daily Dry-Bulb Temperature Range {deltaC}
  -15.6,                                  ! Humidity Indicating Conditions at Maximum Dry-Bulb {BasedOnField A3}
  96438,                                  ! Barometric Pressure {Pa}
  3,                                      ! Wind Speed {m/s}
  310,                                    ! Wind Direction {deg}
  0,                                      ! Sky Clearness
  0,                                      ! Rain Indicator
  0,                                      ! Snow Indicator
  21,                                     ! Day of Month
  1,                                      ! Month
  WinterDesignDay,                        ! Day Type
  0,                                      ! Daylight Saving Time Indicator
  Dewpoint,                               ! Humidity Indicating Type
  ,                                       ! Humidity Indicating Day Schedule Name
  DefaultMultipliers,                     ! Dry-Bulb Temperature Range Modifier Type
  ,                                       ! Dry-Bulb Temperature Range Modifier Schedule Name
  ASHRAEClearSky;                         ! Solar Model Indicator

OS:ComponentData,
  {6121e16e-abfb-4197-a137-f639e2488ac0}, ! Handle
  Component Data 1,                       ! Name
  {1cb2aa1f-6aa2-48ef-ad73-1a4bd16bae65}, ! UUID
  {d7c53564-4792-4051-b98a-77b498bc9325}, ! Version UUID
  1366306243,                             ! Creation Timestamp
  1366306243,                             ! Version Timestamp
  {1fbc1fc0-f98b-4dcc-83a1-72271b79eed7}; ! Name of Object 1

