
OS:Version,
  {3a591b54-8bbd-4993-a58a-451e2779d63a}, ! Handle
  0.9.3;                                  ! Version Identifier

OS:SizingPeriod:DesignDay,
  {9d1fdea3-bc00-4732-9beb-9f258be0f348}, ! Handle
  Nome Municipal Arpt Ann Clg 1% Condns DP=>MDB, ! Name
  15.1,                                   ! Maximum Dry-Bulb Temperature {C}
  5.9,                                    ! Daily Dry-Bulb Temperature Range {deltaC}
  12.1,                                   ! Humidity Indicating Conditions at Maximum Dry-Bulb {BasedOnField A3}
  101277,                                 ! Barometric Pressure {Pa}
  4.8,                                    ! Wind Speed {m/s}
  260,                                    ! Wind Direction {deg}
  0,                                      ! Sky Clearness
  0,                                      ! Rain Indicator
  0,                                      ! Snow Indicator
  21,                                     ! Day of Month
  7,                                      ! Month
  SummerDesignDay,                        ! Day Type
  0,                                      ! Daylight Saving Time Indicator
  Dewpoint,                               ! Humidity Indicating Type
  ,                                       ! Humidity Indicating Day Schedule Name
  DefaultMultipliers,                     ! Dry-Bulb Temperature Range Modifier Type
  ,                                       ! Dry-Bulb Temperature Range Modifier Schedule Name
  ASHRAETau,                              ! Solar Model Indicator
  ,                                       ! Beam Solar Day Schedule Name
  ,                                       ! Diffuse Solar Day Schedule Name
  0.408,                                  ! ASHRAE Taub {dimensionless}
  2.08;                                   ! ASHRAE Taud {dimensionless}

OS:ComponentData,
  {76586ddb-ec99-4bec-9ce9-30128589a7a1}, ! Handle
  Component Data 1,                       ! Name
  {97b6dd12-ea98-41b4-9322-ba028b39ff4b}, ! UUID
  {2d887049-cdbb-44a5-b1de-1147dc3772e2}, ! Version UUID
  1366305464,                             ! Creation Timestamp
  1366305464,                             ! Version Timestamp
  {9d1fdea3-bc00-4732-9beb-9f258be0f348}; ! Name of Object 1

