
OS:Version,
  {ebe7c7b6-e572-4f5b-8126-c66596ea1d19}, ! Handle
  0.9.3;                                  ! Version Identifier

OS:SizingPeriod:DesignDay,
  {5dcabeea-efad-45fe-83be-5bcecd0535f4}, ! Handle
  Medford Rogue Valley Intl Ap Ann Clg 2% Condns Enth=>MDB, ! Name
  31.4,                                   ! Maximum Dry-Bulb Temperature {C}
  17.9,                                   ! Daily Dry-Bulb Temperature Range {deltaC}
  54700,                                  ! Humidity Indicating Conditions at Maximum Dry-Bulb {BasedOnField A3}
  94378,                                  ! Barometric Pressure {Pa}
  3.9,                                    ! Wind Speed {m/s}
  290,                                    ! Wind Direction {deg}
  0,                                      ! Sky Clearness
  0,                                      ! Rain Indicator
  0,                                      ! Snow Indicator
  21,                                     ! Day of Month
  7,                                      ! Month
  SummerDesignDay,                        ! Day Type
  0,                                      ! Daylight Saving Time Indicator
  Enthalpy,                               ! Humidity Indicating Type
  ,                                       ! Humidity Indicating Day Schedule Name
  DefaultMultipliers,                     ! Dry-Bulb Temperature Range Modifier Type
  ,                                       ! Dry-Bulb Temperature Range Modifier Schedule Name
  ASHRAETau,                              ! Solar Model Indicator
  ,                                       ! Beam Solar Day Schedule Name
  ,                                       ! Diffuse Solar Day Schedule Name
  0.356,                                  ! ASHRAE Taub {dimensionless}
  2.582;                                  ! ASHRAE Taud {dimensionless}

OS:ComponentData,
  {ad5008b4-d2e0-472e-8047-6d0d508d21cc}, ! Handle
  Component Data 1,                       ! Name
  {3b09be86-a5a4-4bc1-a2bc-1340f24dda69}, ! UUID
  {d21ad637-e7ea-4a91-963c-601dc16bfdc4}, ! Version UUID
  1366310037,                             ! Creation Timestamp
  1366310037,                             ! Version Timestamp
  {5dcabeea-efad-45fe-83be-5bcecd0535f4}; ! Name of Object 1

