
OS:Version,
  {91c356dc-8ef6-48c8-95c1-62346e50c5a4}, ! Handle
  0.9.3;                                  ! Version Identifier

OS:SizingPeriod:DesignDay,
  {f52abc5c-a961-4247-9d08-2460f3e18ad0}, ! Handle
  Willmar Ann Clg 2% Condns Enth=>MDB,    ! Name
  26.7,                                   ! Maximum Dry-Bulb Temperature {C}
  10.5,                                   ! Daily Dry-Bulb Temperature Range {deltaC}
  67300,                                  ! Humidity Indicating Conditions at Maximum Dry-Bulb {BasedOnField A3}
  97249,                                  ! Barometric Pressure {Pa}
  5,                                      ! Wind Speed {m/s}
  160,                                    ! Wind Direction {deg}
  0,                                      ! Sky Clearness
  0,                                      ! Rain Indicator
  0,                                      ! Snow Indicator
  21,                                     ! Day of Month
  7,                                      ! Month
  SummerDesignDay,                        ! Day Type
  0,                                      ! Daylight Saving Time Indicator
  Enthalpy,                               ! Humidity Indicating Type
  ,                                       ! Humidity Indicating Day Schedule Name
  DefaultMultipliers,                     ! Dry-Bulb Temperature Range Modifier Type
  ,                                       ! Dry-Bulb Temperature Range Modifier Schedule Name
  ASHRAETau,                              ! Solar Model Indicator
  ,                                       ! Beam Solar Day Schedule Name
  ,                                       ! Diffuse Solar Day Schedule Name
  0.398,                                  ! ASHRAE Taub {dimensionless}
  2.251;                                  ! ASHRAE Taud {dimensionless}

OS:ComponentData,
  {eb6335fe-e896-4dfd-83a6-3d660c579801}, ! Handle
  Component Data 1,                       ! Name
  {3821ba51-4e5c-4fd6-af4a-d4d8742d955f}, ! UUID
  {314012ee-e25b-4c33-bc30-a6a8e5d62801}, ! Version UUID
  1366308460,                             ! Creation Timestamp
  1366308460,                             ! Version Timestamp
  {f52abc5c-a961-4247-9d08-2460f3e18ad0}; ! Name of Object 1

