
OS:Version,
  {15414e86-9914-4894-9c25-59490800ac70}, ! Handle
  0.9.3;                                  ! Version Identifier

OS:SizingPeriod:DesignDay,
  {70c7c2bd-4760-478d-8de6-ff404cfe9d7d}, ! Handle
  ROCKFORD Ann Hum_n 99% Condns DP=>MCDB, ! Name
  -18,                                    ! Maximum Dry-Bulb Temperature {C}
  0,                                      ! Daily Dry-Bulb Temperature Range {deltaC}
  -23.3,                                  ! Humidity Indicating Conditions at Maximum Dry-Bulb {BasedOnField A3}
  98698,                                  ! Barometric Pressure {Pa}
  3.8,                                    ! Wind Speed {m/s}
  290,                                    ! Wind Direction {deg}
  0,                                      ! Sky Clearness
  0,                                      ! Rain Indicator
  0,                                      ! Snow Indicator
  21,                                     ! Day of Month
  1,                                      ! Month
  WinterDesignDay,                        ! Day Type
  0,                                      ! Daylight Saving Time Indicator
  Dewpoint,                               ! Humidity Indicating Type
  ,                                       ! Humidity Indicating Day Schedule Name
  DefaultMultipliers,                     ! Dry-Bulb Temperature Range Modifier Type
  ,                                       ! Dry-Bulb Temperature Range Modifier Schedule Name
  ASHRAEClearSky;                         ! Solar Model Indicator

OS:ComponentData,
  {b1e20a27-f663-4c88-9810-7fc11d1f642b}, ! Handle
  Component Data 1,                       ! Name
  {68554678-42bc-434d-b561-d6f3bec08ab3}, ! UUID
  {c2fe6ce7-79e5-4072-b811-4affbe8b357c}, ! Version UUID
  1366307396,                             ! Creation Timestamp
  1366307396,                             ! Version Timestamp
  {70c7c2bd-4760-478d-8de6-ff404cfe9d7d}; ! Name of Object 1

