
OS:Version,
  {777c41f5-7997-4945-a4b0-5904aafba272}, ! Handle
  0.9.3;                                  ! Version Identifier

OS:SizingPeriod:DesignDay,
  {5a2d9126-aed8-4b2a-a8f7-81818b163da0}, ! Handle
  Rochester Ann Clg .4% Condns Enth=>MDB, ! Name
  29.3,                                   ! Maximum Dry-Bulb Temperature {C}
  10.7,                                   ! Daily Dry-Bulb Temperature Range {deltaC}
  73500,                                  ! Humidity Indicating Conditions at Maximum Dry-Bulb {BasedOnField A3}
  99311,                                  ! Barometric Pressure {Pa}
  5.2,                                    ! Wind Speed {m/s}
  240,                                    ! Wind Direction {deg}
  0,                                      ! Sky Clearness
  0,                                      ! Rain Indicator
  0,                                      ! Snow Indicator
  21,                                     ! Day of Month
  7,                                      ! Month
  SummerDesignDay,                        ! Day Type
  0,                                      ! Daylight Saving Time Indicator
  Enthalpy,                               ! Humidity Indicating Type
  ,                                       ! Humidity Indicating Day Schedule Name
  DefaultMultipliers,                     ! Dry-Bulb Temperature Range Modifier Type
  ,                                       ! Dry-Bulb Temperature Range Modifier Schedule Name
  ASHRAETau,                              ! Solar Model Indicator
  ,                                       ! Beam Solar Day Schedule Name
  ,                                       ! Diffuse Solar Day Schedule Name
  0.463,                                  ! ASHRAE Taub {dimensionless}
  2.001;                                  ! ASHRAE Taud {dimensionless}

OS:ComponentData,
  {d4d4a2b9-eed0-4787-90a4-0a870d2545a4}, ! Handle
  Component Data 1,                       ! Name
  {4a186c04-51b3-42d3-9333-020717dc9a78}, ! UUID
  {a01f1da1-a8e2-4658-b72c-c5ac4f6bd8d0}, ! Version UUID
  1366309715,                             ! Creation Timestamp
  1366309715,                             ! Version Timestamp
  {5a2d9126-aed8-4b2a-a8f7-81818b163da0}; ! Name of Object 1

