
OS:Version,
  {ac7ec80f-c0de-48c0-acc4-1109fa28472f}, ! Handle
  0.9.3;                                  ! Version Identifier

OS:SizingPeriod:DesignDay,
  {495f6566-a677-4542-ad07-ed2446feffe5}, ! Handle
  New York City/La Guard Ann Clg 1% Condns DP=>MDB, ! Name
  26.7,                                   ! Maximum Dry-Bulb Temperature {C}
  7.7,                                    ! Daily Dry-Bulb Temperature Range {deltaC}
  22.9,                                   ! Humidity Indicating Conditions at Maximum Dry-Bulb {BasedOnField A3}
  101289,                                 ! Barometric Pressure {Pa}
  5.6,                                    ! Wind Speed {m/s}
  270,                                    ! Wind Direction {deg}
  0,                                      ! Sky Clearness
  0,                                      ! Rain Indicator
  0,                                      ! Snow Indicator
  21,                                     ! Day of Month
  7,                                      ! Month
  SummerDesignDay,                        ! Day Type
  0,                                      ! Daylight Saving Time Indicator
  Dewpoint,                               ! Humidity Indicating Type
  ,                                       ! Humidity Indicating Day Schedule Name
  DefaultMultipliers,                     ! Dry-Bulb Temperature Range Modifier Type
  ,                                       ! Dry-Bulb Temperature Range Modifier Schedule Name
  ASHRAETau,                              ! Solar Model Indicator
  ,                                       ! Beam Solar Day Schedule Name
  ,                                       ! Diffuse Solar Day Schedule Name
  0.532,                                  ! ASHRAE Taub {dimensionless}
  1.821;                                  ! ASHRAE Taud {dimensionless}

OS:ComponentData,
  {5cbb2a90-f017-45af-8b69-225606cee93d}, ! Handle
  Component Data 1,                       ! Name
  {5468fda4-0d69-40ec-8d80-f59b6afde5f5}, ! UUID
  {1f035293-e55b-4a31-90ea-6a30f979816c}, ! Version UUID
  1366309671,                             ! Creation Timestamp
  1366309671,                             ! Version Timestamp
  {495f6566-a677-4542-ad07-ed2446feffe5}; ! Name of Object 1

