
OS:Version,
  {932aefa4-89b3-4e96-aa67-0b0e7f14cb81}, ! Handle
  0.9.3;                                  ! Version Identifier

OS:SizingPeriod:DesignDay,
  {6dd52ffd-8103-49a3-bb1f-4634b945df9b}, ! Handle
  Rochester Ann Htg 99% Condns DB,        ! Name
  -22.9,                                  ! Maximum Dry-Bulb Temperature {C}
  0,                                      ! Daily Dry-Bulb Temperature Range {deltaC}
  -22.9,                                  ! Humidity Indicating Conditions at Maximum Dry-Bulb {BasedOnField A3}
  96588,                                  ! Barometric Pressure {Pa}
  5.7,                                    ! Wind Speed {m/s}
  310,                                    ! Wind Direction {deg}
  0,                                      ! Sky Clearness
  0,                                      ! Rain Indicator
  0,                                      ! Snow Indicator
  21,                                     ! Day of Month
  1,                                      ! Month
  WinterDesignDay,                        ! Day Type
  0,                                      ! Daylight Saving Time Indicator
  Wetbulb,                                ! Humidity Indicating Type
  ,                                       ! Humidity Indicating Day Schedule Name
  DefaultMultipliers,                     ! Dry-Bulb Temperature Range Modifier Type
  ,                                       ! Dry-Bulb Temperature Range Modifier Schedule Name
  ASHRAEClearSky;                         ! Solar Model Indicator

OS:ComponentData,
  {ea472e4b-5e3b-411e-85ad-06cabd043233}, ! Handle
  Component Data 1,                       ! Name
  {dfcf619d-9159-4a9c-bd99-4fd83993c967}, ! UUID
  {5c4da32d-e3bf-4e28-a95b-897f5554abe6}, ! Version UUID
  1366308391,                             ! Creation Timestamp
  1366308391,                             ! Version Timestamp
  {6dd52ffd-8103-49a3-bb1f-4634b945df9b}; ! Name of Object 1

