
OS:Version,
  {856538b7-268d-44f1-957e-1f5b0d71f1a5}, ! Handle
  0.9.3;                                  ! Version Identifier

OS:SizingPeriod:DesignDay,
  {ae8a67ea-7983-4942-9fd6-fe70c8d6e354}, ! Handle
  Talkeetna State Arpt Ann Clg 1% Condns DP=>MDB, ! Name
  16.7,                                   ! Maximum Dry-Bulb Temperature {C}
  8.8,                                    ! Daily Dry-Bulb Temperature Range {deltaC}
  13.3,                                   ! Humidity Indicating Conditions at Maximum Dry-Bulb {BasedOnField A3}
  100070,                                 ! Barometric Pressure {Pa}
  2.9,                                    ! Wind Speed {m/s}
  180,                                    ! Wind Direction {deg}
  0,                                      ! Sky Clearness
  0,                                      ! Rain Indicator
  0,                                      ! Snow Indicator
  21,                                     ! Day of Month
  7,                                      ! Month
  SummerDesignDay,                        ! Day Type
  0,                                      ! Daylight Saving Time Indicator
  Dewpoint,                               ! Humidity Indicating Type
  ,                                       ! Humidity Indicating Day Schedule Name
  DefaultMultipliers,                     ! Dry-Bulb Temperature Range Modifier Type
  ,                                       ! Dry-Bulb Temperature Range Modifier Schedule Name
  ASHRAETau,                              ! Solar Model Indicator
  ,                                       ! Beam Solar Day Schedule Name
  ,                                       ! Diffuse Solar Day Schedule Name
  0.379,                                  ! ASHRAE Taub {dimensionless}
  2.177;                                  ! ASHRAE Taud {dimensionless}

OS:ComponentData,
  {e92a0be0-5f6b-4f62-852e-8a6fc98470b6}, ! Handle
  Component Data 1,                       ! Name
  {ad918254-c329-4e8f-a9ac-efa9ebf52879}, ! UUID
  {66699ce4-6aa8-4bfd-a687-7fa244facaf0}, ! Version UUID
  1366305588,                             ! Creation Timestamp
  1366305588,                             ! Version Timestamp
  {ae8a67ea-7983-4942-9fd6-fe70c8d6e354}; ! Name of Object 1

