
OS:Version,
  {e133bd0e-a0de-401b-9e5a-596bbc2073c7}, ! Handle
  0.9.3;                                  ! Version Identifier

OS:SizingPeriod:DesignDay,
  {2cc91ed1-776c-408b-96e7-1f65300b412e}, ! Handle
  Seattle Seattle Tacoma Intl A Ann Hum_n 99% Condns DP=>MCDB, ! Name
  1.4,                                    ! Maximum Dry-Bulb Temperature {C}
  0,                                      ! Daily Dry-Bulb Temperature Range {deltaC}
  -9.4,                                   ! Humidity Indicating Conditions at Maximum Dry-Bulb {BasedOnField A3}
  99868,                                  ! Barometric Pressure {Pa}
  4.3,                                    ! Wind Speed {m/s}
  20,                                     ! Wind Direction {deg}
  0,                                      ! Sky Clearness
  0,                                      ! Rain Indicator
  0,                                      ! Snow Indicator
  21,                                     ! Day of Month
  12,                                     ! Month
  WinterDesignDay,                        ! Day Type
  0,                                      ! Daylight Saving Time Indicator
  Dewpoint,                               ! Humidity Indicating Type
  ,                                       ! Humidity Indicating Day Schedule Name
  DefaultMultipliers,                     ! Dry-Bulb Temperature Range Modifier Type
  ,                                       ! Dry-Bulb Temperature Range Modifier Schedule Name
  ASHRAEClearSky;                         ! Solar Model Indicator

OS:ComponentData,
  {4e707f72-0201-43fe-8734-2f5354d44c29}, ! Handle
  Component Data 1,                       ! Name
  {118127e7-3e0f-47c0-999a-24b8e6e0a28c}, ! UUID
  {87f54014-d113-459f-ac18-07e88e53cabc}, ! Version UUID
  1366311364,                             ! Creation Timestamp
  1366311364,                             ! Version Timestamp
  {2cc91ed1-776c-408b-96e7-1f65300b412e}; ! Name of Object 1

