
OS:Version,
  {5c992fff-0722-44fe-93a3-b97b98269e30}, ! Handle
  0.9.3;                                  ! Version Identifier

OS:SizingPeriod:DesignDay,
  {d17c19ac-fd1b-4612-9300-aa967661d256}, ! Handle
  Portland Ann Htg Wind 99% Condns WS=>MCDB, ! Name
  -3.7,                                   ! Maximum Dry-Bulb Temperature {C}
  0,                                      ! Daily Dry-Bulb Temperature Range {deltaC}
  -3.7,                                   ! Humidity Indicating Conditions at Maximum Dry-Bulb {BasedOnField A3}
  101097,                                 ! Barometric Pressure {Pa}
  10.8,                                   ! Wind Speed {m/s}
  270,                                    ! Wind Direction {deg}
  0,                                      ! Sky Clearness
  0,                                      ! Rain Indicator
  0,                                      ! Snow Indicator
  21,                                     ! Day of Month
  1,                                      ! Month
  WinterDesignDay,                        ! Day Type
  0,                                      ! Daylight Saving Time Indicator
  Wetbulb,                                ! Humidity Indicating Type
  ,                                       ! Humidity Indicating Day Schedule Name
  DefaultMultipliers,                     ! Dry-Bulb Temperature Range Modifier Type
  ,                                       ! Dry-Bulb Temperature Range Modifier Schedule Name
  ASHRAEClearSky;                         ! Solar Model Indicator

OS:ComponentData,
  {dad44543-a827-47b3-a289-ca34c18e52cc}, ! Handle
  Component Data 1,                       ! Name
  {327497ba-5cce-4ab7-8192-01c5e5cc6b01}, ! UUID
  {a51c7a8d-a631-42cb-8c2d-820235750b07}, ! Version UUID
  1366307910,                             ! Creation Timestamp
  1366307910,                             ! Version Timestamp
  {d17c19ac-fd1b-4612-9300-aa967661d256}; ! Name of Object 1

