
OS:Version,
  {9f173c9e-5608-42e5-af99-29d37175872f}, ! Handle
  0.9.3;                                  ! Version Identifier

OS:SizingPeriod:DesignDay,
  {092881a0-5a6f-4443-901c-cc4b354bdb45}, ! Handle
  Salt Lake City Ann Hum_n 99% Condns DP=>MCDB, ! Name
  -7.5,                                   ! Maximum Dry-Bulb Temperature {C}
  0,                                      ! Daily Dry-Bulb Temperature Range {deltaC}
  -13.6,                                  ! Humidity Indicating Conditions at Maximum Dry-Bulb {BasedOnField A3}
  86779,                                  ! Barometric Pressure {Pa}
  2.8,                                    ! Wind Speed {m/s}
  150,                                    ! Wind Direction {deg}
  0,                                      ! Sky Clearness
  0,                                      ! Rain Indicator
  0,                                      ! Snow Indicator
  21,                                     ! Day of Month
  1,                                      ! Month
  WinterDesignDay,                        ! Day Type
  0,                                      ! Daylight Saving Time Indicator
  Dewpoint,                               ! Humidity Indicating Type
  ,                                       ! Humidity Indicating Day Schedule Name
  DefaultMultipliers,                     ! Dry-Bulb Temperature Range Modifier Type
  ,                                       ! Dry-Bulb Temperature Range Modifier Schedule Name
  ASHRAEClearSky;                         ! Solar Model Indicator

OS:ComponentData,
  {7ae18de0-8e70-446e-b079-e73479a9a8c1}, ! Handle
  Component Data 1,                       ! Name
  {593b15c9-cd68-4e80-8f37-fe06ec4b2d85}, ! UUID
  {8ab4143d-2eb5-4fd5-9e95-e57d2899c69e}, ! Version UUID
  1366310992,                             ! Creation Timestamp
  1366310992,                             ! Version Timestamp
  {092881a0-5a6f-4443-901c-cc4b354bdb45}; ! Name of Object 1

