
OS:Version,
  {4dbd98ab-93d4-4d69-9c2d-1b250e28f8a7}, ! Handle
  0.9.3;                                  ! Version Identifier

OS:SizingPeriod:DesignDay,
  {ea244612-5732-4b91-a5c0-d8e8af7d5dcf}, ! Handle
  YAKIMA Ann Clg .4% Condns DP=>MDB,      ! Name
  24.6,                                   ! Maximum Dry-Bulb Temperature {C}
  17.9,                                   ! Daily Dry-Bulb Temperature Range {deltaC}
  15.7,                                   ! Humidity Indicating Conditions at Maximum Dry-Bulb {BasedOnField A3}
  97481,                                  ! Barometric Pressure {Pa}
  2.7,                                    ! Wind Speed {m/s}
  100,                                    ! Wind Direction {deg}
  0,                                      ! Sky Clearness
  0,                                      ! Rain Indicator
  0,                                      ! Snow Indicator
  21,                                     ! Day of Month
  7,                                      ! Month
  SummerDesignDay,                        ! Day Type
  0,                                      ! Daylight Saving Time Indicator
  Dewpoint,                               ! Humidity Indicating Type
  ,                                       ! Humidity Indicating Day Schedule Name
  DefaultMultipliers,                     ! Dry-Bulb Temperature Range Modifier Type
  ,                                       ! Dry-Bulb Temperature Range Modifier Schedule Name
  ASHRAETau,                              ! Solar Model Indicator
  ,                                       ! Beam Solar Day Schedule Name
  ,                                       ! Diffuse Solar Day Schedule Name
  0.395,                                  ! ASHRAE Taub {dimensionless}
  2.249;                                  ! ASHRAE Taud {dimensionless}

OS:ComponentData,
  {b135de67-c948-43fc-bff1-ca4e9f096ff3}, ! Handle
  Component Data 1,                       ! Name
  {89f1f2ef-10c7-4e53-8818-0e08277e2a5b}, ! UUID
  {8e4ce9aa-57b2-4f30-9a67-f68de1ac5e49}, ! Version UUID
  1366311443,                             ! Creation Timestamp
  1366311443,                             ! Version Timestamp
  {ea244612-5732-4b91-a5c0-d8e8af7d5dcf}; ! Name of Object 1

