
OS:Version,
  {7580b074-7fe2-4911-8e3e-5f4562148c70}, ! Handle
  0.9.3;                                  ! Version Identifier

OS:SizingPeriod:DesignDay,
  {b1919996-58bf-40dc-9c04-dc7c013d9ed4}, ! Handle
  Wrangell Ann Hum_n 99.6% Condns DP=>MCDB, ! Name
  -8.3,                                   ! Maximum Dry-Bulb Temperature {C}
  0,                                      ! Daily Dry-Bulb Temperature Range {deltaC}
  -20.1,                                  ! Humidity Indicating Conditions at Maximum Dry-Bulb {BasedOnField A3}
  101169,                                 ! Barometric Pressure {Pa}
  3.9,                                    ! Wind Speed {m/s}
  330,                                    ! Wind Direction {deg}
  0,                                      ! Sky Clearness
  0,                                      ! Rain Indicator
  0,                                      ! Snow Indicator
  21,                                     ! Day of Month
  1,                                      ! Month
  WinterDesignDay,                        ! Day Type
  0,                                      ! Daylight Saving Time Indicator
  Dewpoint,                               ! Humidity Indicating Type
  ,                                       ! Humidity Indicating Day Schedule Name
  DefaultMultipliers,                     ! Dry-Bulb Temperature Range Modifier Type
  ,                                       ! Dry-Bulb Temperature Range Modifier Schedule Name
  ASHRAEClearSky;                         ! Solar Model Indicator

OS:ComponentData,
  {ec41c956-3e4d-4b0c-a5eb-81accb5bb4e6}, ! Handle
  Component Data 1,                       ! Name
  {4ffe1cb0-c915-493e-a6fd-dc1374e85c89}, ! UUID
  {b8dde1d2-ed34-487b-915b-4d2063174e60}, ! Version UUID
  1366305617,                             ! Creation Timestamp
  1366305617,                             ! Version Timestamp
  {b1919996-58bf-40dc-9c04-dc7c013d9ed4}; ! Name of Object 1

