
OS:Version,
  {7a699dd0-5f38-44c4-9dcb-a2fbbc6becf6}, ! Handle
  0.9.3;                                  ! Version Identifier

OS:SizingPeriod:DesignDay,
  {4842bd8c-8988-44d8-b2d8-a638377f8672}, ! Handle
  Sheridan Ann Clg 1% Condns Enth=>MDB,   ! Name
  29.4,                                   ! Maximum Dry-Bulb Temperature {C}
  17.2,                                   ! Daily Dry-Bulb Temperature Range {deltaC}
  57900,                                  ! Humidity Indicating Conditions at Maximum Dry-Bulb {BasedOnField A3}
  87619,                                  ! Barometric Pressure {Pa}
  3.7,                                    ! Wind Speed {m/s}
  310,                                    ! Wind Direction {deg}
  0,                                      ! Sky Clearness
  0,                                      ! Rain Indicator
  0,                                      ! Snow Indicator
  21,                                     ! Day of Month
  7,                                      ! Month
  SummerDesignDay,                        ! Day Type
  0,                                      ! Daylight Saving Time Indicator
  Enthalpy,                               ! Humidity Indicating Type
  ,                                       ! Humidity Indicating Day Schedule Name
  DefaultMultipliers,                     ! Dry-Bulb Temperature Range Modifier Type
  ,                                       ! Dry-Bulb Temperature Range Modifier Schedule Name
  ASHRAETau,                              ! Solar Model Indicator
  ,                                       ! Beam Solar Day Schedule Name
  ,                                       ! Diffuse Solar Day Schedule Name
  0.407,                                  ! ASHRAE Taub {dimensionless}
  2.098;                                  ! ASHRAE Taud {dimensionless}

OS:ComponentData,
  {8a7e24ae-c6b2-4a88-bb76-a4a89d4bc2df}, ! Handle
  Component Data 1,                       ! Name
  {9fc075d2-91d0-4e6f-a59f-3a45c9230ca4}, ! UUID
  {fe90a3fa-7434-4863-8535-eb432b3806cd}, ! Version UUID
  1366311782,                             ! Creation Timestamp
  1366311782,                             ! Version Timestamp
  {4842bd8c-8988-44d8-b2d8-a638377f8672}; ! Name of Object 1

