
OS:Version,
  {09fef8e3-f9ec-4120-9f71-54f282d23f75}, ! Handle
  0.9.3;                                  ! Version Identifier

OS:SizingPeriod:DesignDay,
  {cfcf10d7-241e-40ec-a72f-611c7ee074af}, ! Handle
  Russell Municipal Ap Ann Clg 1% Condns DB=>MWB, ! Name
  36.2,                                   ! Maximum Dry-Bulb Temperature {C}
  13.4,                                   ! Daily Dry-Bulb Temperature Range {deltaC}
  22.3,                                   ! Humidity Indicating Conditions at Maximum Dry-Bulb {BasedOnField A3}
  94708,                                  ! Barometric Pressure {Pa}
  7.9,                                    ! Wind Speed {m/s}
  180,                                    ! Wind Direction {deg}
  0,                                      ! Sky Clearness
  0,                                      ! Rain Indicator
  0,                                      ! Snow Indicator
  21,                                     ! Day of Month
  7,                                      ! Month
  SummerDesignDay,                        ! Day Type
  0,                                      ! Daylight Saving Time Indicator
  Wetbulb,                                ! Humidity Indicating Type
  ,                                       ! Humidity Indicating Day Schedule Name
  DefaultMultipliers,                     ! Dry-Bulb Temperature Range Modifier Type
  ,                                       ! Dry-Bulb Temperature Range Modifier Schedule Name
  ASHRAETau,                              ! Solar Model Indicator
  ,                                       ! Beam Solar Day Schedule Name
  ,                                       ! Diffuse Solar Day Schedule Name
  0.427,                                  ! ASHRAE Taub {dimensionless}
  2.131;                                  ! ASHRAE Taud {dimensionless}

OS:ComponentData,
  {1723f395-88ad-4952-94ed-782628534a0f}, ! Handle
  Component Data 1,                       ! Name
  {9cf22c9d-16d2-4431-949c-f2780ec87856}, ! UUID
  {eb140b67-9d4c-4e24-a967-9750b6c957e3}, ! Version UUID
  1366307571,                             ! Creation Timestamp
  1366307571,                             ! Version Timestamp
  {cfcf10d7-241e-40ec-a72f-611c7ee074af}; ! Name of Object 1

