
OS:Version,
  {5845b158-291a-4e4e-97cc-6fcabe9f4be2}, ! Handle
  0.9.3;                                  ! Version Identifier

OS:SizingPeriod:DesignDay,
  {80208f48-cb8c-4240-8bf1-4ed31d174384}, ! Handle
  Missoula International Ap Ann Clg 1% Condns DP=>MDB, ! Name
  20.2,                                   ! Maximum Dry-Bulb Temperature {C}
  17.5,                                   ! Daily Dry-Bulb Temperature Range {deltaC}
  14,                                     ! Humidity Indicating Conditions at Maximum Dry-Bulb {BasedOnField A3}
  90169,                                  ! Barometric Pressure {Pa}
  4.4,                                    ! Wind Speed {m/s}
  320,                                    ! Wind Direction {deg}
  0,                                      ! Sky Clearness
  0,                                      ! Rain Indicator
  0,                                      ! Snow Indicator
  21,                                     ! Day of Month
  7,                                      ! Month
  SummerDesignDay,                        ! Day Type
  0,                                      ! Daylight Saving Time Indicator
  Dewpoint,                               ! Humidity Indicating Type
  ,                                       ! Humidity Indicating Day Schedule Name
  DefaultMultipliers,                     ! Dry-Bulb Temperature Range Modifier Type
  ,                                       ! Dry-Bulb Temperature Range Modifier Schedule Name
  ASHRAETau,                              ! Solar Model Indicator
  ,                                       ! Beam Solar Day Schedule Name
  ,                                       ! Diffuse Solar Day Schedule Name
  0.357,                                  ! ASHRAE Taub {dimensionless}
  2.409;                                  ! ASHRAE Taud {dimensionless}

OS:ComponentData,
  {3cc31c7d-39f3-4260-bf53-fb09dd850c9e}, ! Handle
  Component Data 1,                       ! Name
  {4c24f975-76dd-4d92-8ac4-263a1db5150d}, ! UUID
  {934a91a6-492d-45c4-8a25-1315e9a56032}, ! Version UUID
  1366308850,                             ! Creation Timestamp
  1366308850,                             ! Version Timestamp
  {80208f48-cb8c-4240-8bf1-4ed31d174384}; ! Name of Object 1

