
OS:Version,
  {b12d423e-2ff3-40ed-8b2e-42cff8ddac95}, ! Handle
  0.9.3;                                  ! Version Identifier

OS:SizingPeriod:DesignDay,
  {a433d9b6-9a71-4b84-97a2-a564749585e0}, ! Handle
  QUILLAYUTE Ann Clg .4% Condns DP=>MDB,  ! Name
  18.8,                                   ! Maximum Dry-Bulb Temperature {C}
  9.8,                                    ! Daily Dry-Bulb Temperature Range {deltaC}
  15.8,                                   ! Humidity Indicating Conditions at Maximum Dry-Bulb {BasedOnField A3}
  100666,                                 ! Barometric Pressure {Pa}
  3.7,                                    ! Wind Speed {m/s}
  240,                                    ! Wind Direction {deg}
  0,                                      ! Sky Clearness
  0,                                      ! Rain Indicator
  0,                                      ! Snow Indicator
  21,                                     ! Day of Month
  8,                                      ! Month
  SummerDesignDay,                        ! Day Type
  0,                                      ! Daylight Saving Time Indicator
  Dewpoint,                               ! Humidity Indicating Type
  ,                                       ! Humidity Indicating Day Schedule Name
  DefaultMultipliers,                     ! Dry-Bulb Temperature Range Modifier Type
  ,                                       ! Dry-Bulb Temperature Range Modifier Schedule Name
  ASHRAETau,                              ! Solar Model Indicator
  ,                                       ! Beam Solar Day Schedule Name
  ,                                       ! Diffuse Solar Day Schedule Name
  0.351,                                  ! ASHRAE Taub {dimensionless}
  2.578;                                  ! ASHRAE Taud {dimensionless}

OS:ComponentData,
  {774ebf1a-dde5-4dcb-af15-79f3be37831d}, ! Handle
  Component Data 1,                       ! Name
  {7c6f22d1-3dac-4319-962f-63b5011652e5}, ! UUID
  {fe746c2a-3098-48f3-871e-0fb58d7dcde0}, ! Version UUID
  1366311337,                             ! Creation Timestamp
  1366311337,                             ! Version Timestamp
  {a433d9b6-9a71-4b84-97a2-a564749585e0}; ! Name of Object 1

