
OS:Version,
  {31e6115d-502b-44aa-a0ec-f384d31bfbc9}, ! Handle
  0.9.3;                                  ! Version Identifier

OS:SizingPeriod:DesignDay,
  {3235c6a6-44a1-4c9b-b1d4-39628496a8a1}, ! Handle
  Nome Ann Hum_n 99% Condns DP=>MCDB,     ! Name
  -30.2,                                  ! Maximum Dry-Bulb Temperature {C}
  0,                                      ! Daily Dry-Bulb Temperature Range {deltaC}
  -34.1,                                  ! Humidity Indicating Conditions at Maximum Dry-Bulb {BasedOnField A3}
  101241,                                 ! Barometric Pressure {Pa}
  1.1,                                    ! Wind Speed {m/s}
  10,                                     ! Wind Direction {deg}
  0,                                      ! Sky Clearness
  0,                                      ! Rain Indicator
  0,                                      ! Snow Indicator
  21,                                     ! Day of Month
  1,                                      ! Month
  WinterDesignDay,                        ! Day Type
  0,                                      ! Daylight Saving Time Indicator
  Dewpoint,                               ! Humidity Indicating Type
  ,                                       ! Humidity Indicating Day Schedule Name
  DefaultMultipliers,                     ! Dry-Bulb Temperature Range Modifier Type
  ,                                       ! Dry-Bulb Temperature Range Modifier Schedule Name
  ASHRAEClearSky;                         ! Solar Model Indicator

OS:ComponentData,
  {b43bbbb8-5907-484d-aaae-98d0bc6f9bc3}, ! Handle
  Component Data 1,                       ! Name
  {d8e03954-02ee-4a4e-aa49-6f7f7f1d9b32}, ! UUID
  {6a7bea80-fc4f-4c41-9e83-de78f2feff5c}, ! Version UUID
  1366305453,                             ! Creation Timestamp
  1366305453,                             ! Version Timestamp
  {3235c6a6-44a1-4c9b-b1d4-39628496a8a1}; ! Name of Object 1

