
OS:Version,
  {80e3cf63-873a-475b-9e26-363fdf820a65}, ! Handle
  0.9.3;                                  ! Version Identifier

OS:SizingPeriod:DesignDay,
  {1d587294-6d71-4f7c-ae93-55cd08893f7b}, ! Handle
  Washington Dc Reagan Ap Ann Clg .4% Condns DP=>MDB, ! Name
  28.5,                                   ! Maximum Dry-Bulb Temperature {C}
  8.9,                                    ! Daily Dry-Bulb Temperature Range {deltaC}
  24.4,                                   ! Humidity Indicating Conditions at Maximum Dry-Bulb {BasedOnField A3}
  101289,                                 ! Barometric Pressure {Pa}
  4.6,                                    ! Wind Speed {m/s}
  170,                                    ! Wind Direction {deg}
  0,                                      ! Sky Clearness
  0,                                      ! Rain Indicator
  0,                                      ! Snow Indicator
  21,                                     ! Day of Month
  7,                                      ! Month
  SummerDesignDay,                        ! Day Type
  0,                                      ! Daylight Saving Time Indicator
  Dewpoint,                               ! Humidity Indicating Type
  ,                                       ! Humidity Indicating Day Schedule Name
  DefaultMultipliers,                     ! Dry-Bulb Temperature Range Modifier Type
  ,                                       ! Dry-Bulb Temperature Range Modifier Schedule Name
  ASHRAETau,                              ! Solar Model Indicator
  ,                                       ! Beam Solar Day Schedule Name
  ,                                       ! Diffuse Solar Day Schedule Name
  0.563,                                  ! ASHRAE Taub {dimensionless}
  1.747;                                  ! ASHRAE Taud {dimensionless}

OS:ComponentData,
  {21c3b8e8-3714-4165-b62f-ae68bc73bfb3}, ! Handle
  Component Data 1,                       ! Name
  {6535980d-2549-421b-904c-f707fe35375b}, ! UUID
  {0f90fe37-3766-4705-aeb0-6a3df692958f}, ! Version UUID
  1366311019,                             ! Creation Timestamp
  1366311019,                             ! Version Timestamp
  {1d587294-6d71-4f7c-ae93-55cd08893f7b}; ! Name of Object 1

