
OS:Version,
  {3de856ea-f2a6-466b-b7ec-fde747f609ce}, ! Handle
  0.9.3;                                  ! Version Identifier

OS:SizingPeriod:DesignDay,
  {5afe59d8-776b-4abd-b499-b2f54bb6cec2}, ! Handle
  San Diego/Int'l Airpor Ann Hum_n 99.6% Condns DP=>MCDB, ! Name
  14.5,                                   ! Maximum Dry-Bulb Temperature {C}
  0,                                      ! Daily Dry-Bulb Temperature Range {deltaC}
  -7.6,                                   ! Humidity Indicating Conditions at Maximum Dry-Bulb {BasedOnField A3}
  101217,                                 ! Barometric Pressure {Pa}
  1.3,                                    ! Wind Speed {m/s}
  340,                                    ! Wind Direction {deg}
  0,                                      ! Sky Clearness
  0,                                      ! Rain Indicator
  0,                                      ! Snow Indicator
  21,                                     ! Day of Month
  12,                                     ! Month
  WinterDesignDay,                        ! Day Type
  0,                                      ! Daylight Saving Time Indicator
  Dewpoint,                               ! Humidity Indicating Type
  ,                                       ! Humidity Indicating Day Schedule Name
  DefaultMultipliers,                     ! Dry-Bulb Temperature Range Modifier Type
  ,                                       ! Dry-Bulb Temperature Range Modifier Schedule Name
  ASHRAEClearSky;                         ! Solar Model Indicator

OS:ComponentData,
  {3cb519d2-1ddd-4ffc-a813-678ce3c0880b}, ! Handle
  Component Data 1,                       ! Name
  {d9ade978-f260-4a6f-80de-e5b67cc53d06}, ! UUID
  {837ab54b-6b38-44df-a8bf-a0af07af76dc}, ! Version UUID
  1366306572,                             ! Creation Timestamp
  1366306572,                             ! Version Timestamp
  {5afe59d8-776b-4abd-b499-b2f54bb6cec2}; ! Name of Object 1

