
OS:Version,
  {450523df-5d3c-47d6-82d9-1d18d7f8b946}, ! Handle
  0.9.3;                                  ! Version Identifier

OS:SizingPeriod:DesignDay,
  {ddeaca63-b6fc-4553-b991-1ec0a1a78623}, ! Handle
  Minchumina Ann Htg 99.6% Condns DB,     ! Name
  -42.2,                                  ! Maximum Dry-Bulb Temperature {C}
  0,                                      ! Daily Dry-Bulb Temperature Range {deltaC}
  -42.2,                                  ! Humidity Indicating Conditions at Maximum Dry-Bulb {BasedOnField A3}
  98792,                                  ! Barometric Pressure {Pa}
  0,                                      ! Wind Speed {m/s}
  270,                                    ! Wind Direction {deg}
  0,                                      ! Sky Clearness
  0,                                      ! Rain Indicator
  0,                                      ! Snow Indicator
  21,                                     ! Day of Month
  1,                                      ! Month
  WinterDesignDay,                        ! Day Type
  0,                                      ! Daylight Saving Time Indicator
  Wetbulb,                                ! Humidity Indicating Type
  ,                                       ! Humidity Indicating Day Schedule Name
  DefaultMultipliers,                     ! Dry-Bulb Temperature Range Modifier Type
  ,                                       ! Dry-Bulb Temperature Range Modifier Schedule Name
  ASHRAEClearSky;                         ! Solar Model Indicator

OS:ComponentData,
  {6cc56695-2b46-4407-a336-76a4bae15095}, ! Handle
  Component Data 1,                       ! Name
  {c8340400-cc43-49aa-82bc-23e4840c127b}, ! UUID
  {5b82d75e-4af7-4fba-95ab-3e8812572f72}, ! Version UUID
  1366305434,                             ! Creation Timestamp
  1366305434,                             ! Version Timestamp
  {ddeaca63-b6fc-4553-b991-1ec0a1a78623}; ! Name of Object 1

