
OS:Version,
  {b63f14f2-9a8f-4f02-8f24-7dca56fffbb8}, ! Handle
  0.9.3;                                  ! Version Identifier

OS:SizingPeriod:DesignDay,
  {9c6572bf-1219-4612-a089-94b76c255057}, ! Handle
  Nellis Afb Ann Clg 1% Condns DB=>MWB,   ! Name
  41.8,                                   ! Maximum Dry-Bulb Temperature {C}
  14.5,                                   ! Daily Dry-Bulb Temperature Range {deltaC}
  19.5,                                   ! Humidity Indicating Conditions at Maximum Dry-Bulb {BasedOnField A3}
  94628,                                  ! Barometric Pressure {Pa}
  4.6,                                    ! Wind Speed {m/s}
  220,                                    ! Wind Direction {deg}
  0,                                      ! Sky Clearness
  0,                                      ! Rain Indicator
  0,                                      ! Snow Indicator
  21,                                     ! Day of Month
  7,                                      ! Month
  SummerDesignDay,                        ! Day Type
  0,                                      ! Daylight Saving Time Indicator
  Wetbulb,                                ! Humidity Indicating Type
  ,                                       ! Humidity Indicating Day Schedule Name
  DefaultMultipliers,                     ! Dry-Bulb Temperature Range Modifier Type
  ,                                       ! Dry-Bulb Temperature Range Modifier Schedule Name
  ASHRAETau,                              ! Solar Model Indicator
  ,                                       ! Beam Solar Day Schedule Name
  ,                                       ! Diffuse Solar Day Schedule Name
  0.557,                                  ! ASHRAE Taub {dimensionless}
  1.66;                                   ! ASHRAE Taud {dimensionless}

OS:ComponentData,
  {69722337-7262-475f-82ab-c0365a587324}, ! Handle
  Component Data 1,                       ! Name
  {c667abc4-25d7-4d60-9f63-27cb4bb41885}, ! UUID
  {e92a1504-4493-460f-85b1-6da0a81cbe51}, ! Version UUID
  1366309526,                             ! Creation Timestamp
  1366309526,                             ! Version Timestamp
  {9c6572bf-1219-4612-a089-94b76c255057}; ! Name of Object 1

