
OS:Version,
  {2d743b7a-a2ed-46fd-b568-5cb0bb59727c}, ! Handle
  0.9.3;                                  ! Version Identifier

OS:SizingPeriod:DesignDay,
  {3b6ddaa6-1df3-46df-a089-5da7fdf496c7}, ! Handle
  Panama City Bay Co Ann Htg Wind 99% Condns WS=>MCDB, ! Name
  12.6,                                   ! Maximum Dry-Bulb Temperature {C}
  0,                                      ! Daily Dry-Bulb Temperature Range {deltaC}
  12.6,                                   ! Humidity Indicating Conditions at Maximum Dry-Bulb {BasedOnField A3}
  101253,                                 ! Barometric Pressure {Pa}
  9,                                      ! Wind Speed {m/s}
  30,                                     ! Wind Direction {deg}
  0,                                      ! Sky Clearness
  0,                                      ! Rain Indicator
  0,                                      ! Snow Indicator
  21,                                     ! Day of Month
  1,                                      ! Month
  WinterDesignDay,                        ! Day Type
  0,                                      ! Daylight Saving Time Indicator
  Wetbulb,                                ! Humidity Indicating Type
  ,                                       ! Humidity Indicating Day Schedule Name
  DefaultMultipliers,                     ! Dry-Bulb Temperature Range Modifier Type
  ,                                       ! Dry-Bulb Temperature Range Modifier Schedule Name
  ASHRAEClearSky;                         ! Solar Model Indicator

OS:ComponentData,
  {f926ae14-e020-4ebf-b270-2e367445ced4}, ! Handle
  Component Data 1,                       ! Name
  {120f3fe8-4214-47b1-a2fa-c730fcdcf04c}, ! UUID
  {2426c56e-3276-4f5c-bbcd-710d3335f5ac}, ! Version UUID
  1366306898,                             ! Creation Timestamp
  1366306898,                             ! Version Timestamp
  {3b6ddaa6-1df3-46df-a089-5da7fdf496c7}; ! Name of Object 1

