
OS:Version,
  {1f59ec1a-5100-4126-863e-47a7ec3df553}, ! Handle
  0.9.3;                                  ! Version Identifier

OS:SizingPeriod:DesignDay,
  {d78d3ae3-3470-4475-9f33-23404879c334}, ! Handle
  Youngstown Regional Airport Ann Clg 2% Condns WB=>MDB, ! Name
  26.6,                                   ! Maximum Dry-Bulb Temperature {C}
  11.5,                                   ! Daily Dry-Bulb Temperature Range {deltaC}
  22.3,                                   ! Humidity Indicating Conditions at Maximum Dry-Bulb {BasedOnField A3}
  97074,                                  ! Barometric Pressure {Pa}
  4.3,                                    ! Wind Speed {m/s}
  230,                                    ! Wind Direction {deg}
  0,                                      ! Sky Clearness
  0,                                      ! Rain Indicator
  0,                                      ! Snow Indicator
  21,                                     ! Day of Month
  7,                                      ! Month
  SummerDesignDay,                        ! Day Type
  0,                                      ! Daylight Saving Time Indicator
  Wetbulb,                                ! Humidity Indicating Type
  ,                                       ! Humidity Indicating Day Schedule Name
  DefaultMultipliers,                     ! Dry-Bulb Temperature Range Modifier Type
  ,                                       ! Dry-Bulb Temperature Range Modifier Schedule Name
  ASHRAETau,                              ! Solar Model Indicator
  ,                                       ! Beam Solar Day Schedule Name
  ,                                       ! Diffuse Solar Day Schedule Name
  0.456,                                  ! ASHRAE Taub {dimensionless}
  2.022;                                  ! ASHRAE Taud {dimensionless}

OS:ComponentData,
  {fc5f1053-eec3-43ba-aeb9-f42e3cfc5c45}, ! Handle
  Component Data 1,                       ! Name
  {2c65c5bb-2f66-4d32-b69f-536a63d6a0b2}, ! UUID
  {836d0797-67b0-4ad9-bc03-ec1dd78062bc}, ! Version UUID
  1366309870,                             ! Creation Timestamp
  1366309870,                             ! Version Timestamp
  {d78d3ae3-3470-4475-9f33-23404879c334}; ! Name of Object 1

