
OS:Version,
  {17a2ec88-5bce-46ce-8380-fea1682a9869}, ! Handle
  0.9.3;                                  ! Version Identifier

OS:SizingPeriod:DesignDay,
  {0cb70784-52c9-4ee3-9d3d-cd83db08a8aa}, ! Handle
  Springfield Hartnes Ann Clg 2% Condns Enth=>MDB, ! Name
  26,                                     ! Maximum Dry-Bulb Temperature {C}
  12.4,                                   ! Daily Dry-Bulb Temperature Range {deltaC}
  64000,                                  ! Humidity Indicating Conditions at Maximum Dry-Bulb {BasedOnField A3}
  99228,                                  ! Barometric Pressure {Pa}
  3.9,                                    ! Wind Speed {m/s}
  240,                                    ! Wind Direction {deg}
  0,                                      ! Sky Clearness
  0,                                      ! Rain Indicator
  0,                                      ! Snow Indicator
  21,                                     ! Day of Month
  7,                                      ! Month
  SummerDesignDay,                        ! Day Type
  0,                                      ! Daylight Saving Time Indicator
  Enthalpy,                               ! Humidity Indicating Type
  ,                                       ! Humidity Indicating Day Schedule Name
  DefaultMultipliers,                     ! Dry-Bulb Temperature Range Modifier Type
  ,                                       ! Dry-Bulb Temperature Range Modifier Schedule Name
  ASHRAETau,                              ! Solar Model Indicator
  ,                                       ! Beam Solar Day Schedule Name
  ,                                       ! Diffuse Solar Day Schedule Name
  0.443,                                  ! ASHRAE Taub {dimensionless}
  2.072;                                  ! ASHRAE Taud {dimensionless}

OS:ComponentData,
  {92e56342-dcb3-46b0-999e-fe86c5366965}, ! Handle
  Component Data 1,                       ! Name
  {6274ecb1-821d-4bcd-82c3-db46750b342e}, ! UUID
  {7c8a770a-60f7-410d-bef7-43e9c3f2fc71}, ! Version UUID
  1366311263,                             ! Creation Timestamp
  1366311263,                             ! Version Timestamp
  {0cb70784-52c9-4ee3-9d3d-cd83db08a8aa}; ! Name of Object 1

