
OS:Version,
  {2d351cd6-526c-4bb9-bbfa-073758012c23}, ! Handle
  0.9.3;                                  ! Version Identifier

OS:SizingPeriod:DesignDay,
  {1b4d9cb5-008c-4673-8ec0-8a60c2c6bda9}, ! Handle
  Southern Illinois Ann Clg 1% Condns DB=>MWB, ! Name
  32.8,                                   ! Maximum Dry-Bulb Temperature {C}
  10.4,                                   ! Daily Dry-Bulb Temperature Range {deltaC}
  25,                                     ! Humidity Indicating Conditions at Maximum Dry-Bulb {BasedOnField A3}
  99797,                                  ! Barometric Pressure {Pa}
  3.8,                                    ! Wind Speed {m/s}
  200,                                    ! Wind Direction {deg}
  0,                                      ! Sky Clearness
  0,                                      ! Rain Indicator
  0,                                      ! Snow Indicator
  21,                                     ! Day of Month
  7,                                      ! Month
  SummerDesignDay,                        ! Day Type
  0,                                      ! Daylight Saving Time Indicator
  Wetbulb,                                ! Humidity Indicating Type
  ,                                       ! Humidity Indicating Day Schedule Name
  DefaultMultipliers,                     ! Dry-Bulb Temperature Range Modifier Type
  ,                                       ! Dry-Bulb Temperature Range Modifier Schedule Name
  ASHRAETau,                              ! Solar Model Indicator
  ,                                       ! Beam Solar Day Schedule Name
  ,                                       ! Diffuse Solar Day Schedule Name
  0.488,                                  ! ASHRAE Taub {dimensionless}
  1.955;                                  ! ASHRAE Taud {dimensionless}

OS:ComponentData,
  {6ebdeaa9-8657-4929-9b3f-df6db9535772}, ! Handle
  Component Data 1,                       ! Name
  {1fbce9c1-ee86-4d87-9267-9baa8d9774e5}, ! UUID
  {639d9b0a-389f-4144-9d3e-04f5f2190f8a}, ! Version UUID
  1366307331,                             ! Creation Timestamp
  1366307331,                             ! Version Timestamp
  {1b4d9cb5-008c-4673-8ec0-8a60c2c6bda9}; ! Name of Object 1

