
OS:Version,
  {01204ed9-de57-4a43-bbc2-c0935abd85ce}, ! Handle
  0.9.3;                                  ! Version Identifier

OS:SizingPeriod:DesignDay,
  {e6afa433-70b6-40af-8f68-b6e0f51cdf39}, ! Handle
  Salem Ann Clg .4% Condns Enth=>MDB,     ! Name
  31.5,                                   ! Maximum Dry-Bulb Temperature {C}
  15.4,                                   ! Daily Dry-Bulb Temperature Range {deltaC}
  58600,                                  ! Humidity Indicating Conditions at Maximum Dry-Bulb {BasedOnField A3}
  100594,                                 ! Barometric Pressure {Pa}
  4.3,                                    ! Wind Speed {m/s}
  0,                                      ! Wind Direction {deg}
  0,                                      ! Sky Clearness
  0,                                      ! Rain Indicator
  0,                                      ! Snow Indicator
  21,                                     ! Day of Month
  8,                                      ! Month
  SummerDesignDay,                        ! Day Type
  0,                                      ! Daylight Saving Time Indicator
  Enthalpy,                               ! Humidity Indicating Type
  ,                                       ! Humidity Indicating Day Schedule Name
  DefaultMultipliers,                     ! Dry-Bulb Temperature Range Modifier Type
  ,                                       ! Dry-Bulb Temperature Range Modifier Schedule Name
  ASHRAETau,                              ! Solar Model Indicator
  ,                                       ! Beam Solar Day Schedule Name
  ,                                       ! Diffuse Solar Day Schedule Name
  0.355,                                  ! ASHRAE Taub {dimensionless}
  2.578;                                  ! ASHRAE Taud {dimensionless}

OS:ComponentData,
  {c9d2e3d8-7821-436f-9b4e-f066e146b236}, ! Handle
  Component Data 1,                       ! Name
  {e23d7916-8929-4bea-908f-67133fae7941}, ! UUID
  {018d0363-b367-4752-9897-95d184bb9284}, ! Version UUID
  1366310110,                             ! Creation Timestamp
  1366310110,                             ! Version Timestamp
  {e6afa433-70b6-40af-8f68-b6e0f51cdf39}; ! Name of Object 1

