
OS:Version,
  {853d5af1-3bad-421f-9620-d80523ff5272}, ! Handle
  0.9.3;                                  ! Version Identifier

OS:SizingPeriod:DesignDay,
  {c1348863-0b35-4e83-9698-8a2a1168d402}, ! Handle
  Muscle Shoals Regional Ap Ann Htg Wind 99.6% Condns WS=>MCDB, ! Name
  10.5,                                   ! Maximum Dry-Bulb Temperature {C}
  0,                                      ! Daily Dry-Bulb Temperature Range {deltaC}
  10.5,                                   ! Humidity Indicating Conditions at Maximum Dry-Bulb {BasedOnField A3}
  99358,                                  ! Barometric Pressure {Pa}
  9.8,                                    ! Wind Speed {m/s}
  20,                                     ! Wind Direction {deg}
  0,                                      ! Sky Clearness
  0,                                      ! Rain Indicator
  0,                                      ! Snow Indicator
  21,                                     ! Day of Month
  1,                                      ! Month
  WinterDesignDay,                        ! Day Type
  0,                                      ! Daylight Saving Time Indicator
  Wetbulb,                                ! Humidity Indicating Type
  ,                                       ! Humidity Indicating Day Schedule Name
  DefaultMultipliers,                     ! Dry-Bulb Temperature Range Modifier Type
  ,                                       ! Dry-Bulb Temperature Range Modifier Schedule Name
  ASHRAEClearSky;                         ! Solar Model Indicator

OS:ComponentData,
  {12c5e11d-2704-4159-ab23-1b4647622c56}, ! Handle
  Component Data 1,                       ! Name
  {995b62c9-049c-41f1-ace4-3ee65aa13f3f}, ! UUID
  {75e4f839-85dd-4c99-920b-5cba09aed044}, ! Version UUID
  1366305970,                             ! Creation Timestamp
  1366305970,                             ! Version Timestamp
  {c1348863-0b35-4e83-9698-8a2a1168d402}; ! Name of Object 1

