
OS:Version,
  {428edf5e-4151-4134-b010-3b664809d2d8}, ! Handle
  0.9.3;                                  ! Version Identifier

OS:SizingPeriod:DesignDay,
  {69ad88cf-6f34-43e0-b0eb-1b7275fb7a54}, ! Handle
  Meridian Naas Ann Clg 1% Condns Enth=>MDB, ! Name
  32.5,                                   ! Maximum Dry-Bulb Temperature {C}
  11.7,                                   ! Daily Dry-Bulb Temperature Range {deltaC}
  81300,                                  ! Humidity Indicating Conditions at Maximum Dry-Bulb {BasedOnField A3}
  100332,                                 ! Barometric Pressure {Pa}
  2,                                      ! Wind Speed {m/s}
  270,                                    ! Wind Direction {deg}
  0,                                      ! Sky Clearness
  0,                                      ! Rain Indicator
  0,                                      ! Snow Indicator
  21,                                     ! Day of Month
  7,                                      ! Month
  SummerDesignDay,                        ! Day Type
  0,                                      ! Daylight Saving Time Indicator
  Enthalpy,                               ! Humidity Indicating Type
  ,                                       ! Humidity Indicating Day Schedule Name
  DefaultMultipliers,                     ! Dry-Bulb Temperature Range Modifier Type
  ,                                       ! Dry-Bulb Temperature Range Modifier Schedule Name
  ASHRAETau,                              ! Solar Model Indicator
  ,                                       ! Beam Solar Day Schedule Name
  ,                                       ! Diffuse Solar Day Schedule Name
  0.555,                                  ! ASHRAE Taub {dimensionless}
  1.808;                                  ! ASHRAE Taud {dimensionless}

OS:ComponentData,
  {217859c4-d8a7-4f26-9aa7-7c74c3fb3f3d}, ! Handle
  Component Data 1,                       ! Name
  {9b54bc4f-314d-4358-8c4f-c21fdd9070ff}, ! UUID
  {a0f58d6c-0133-459c-bc09-c64c473fd21e}, ! Version UUID
  1366308681,                             ! Creation Timestamp
  1366308681,                             ! Version Timestamp
  {69ad88cf-6f34-43e0-b0eb-1b7275fb7a54}; ! Name of Object 1

