
OS:Version,
  {55edeae6-908a-40a9-aa6c-5e3ef6a7bc08}, ! Handle
  0.9.3;                                  ! Version Identifier

OS:SizingPeriod:DesignDay,
  {ae31c3da-152e-4958-9c06-e539c9b8e098}, ! Handle
  Worland Municipal Ann Clg .4% Condns DP=>MDB, ! Name
  23.4,                                   ! Maximum Dry-Bulb Temperature {C}
  17.8,                                   ! Daily Dry-Bulb Temperature Range {deltaC}
  16.1,                                   ! Humidity Indicating Conditions at Maximum Dry-Bulb {BasedOnField A3}
  86715,                                  ! Barometric Pressure {Pa}
  3.7,                                    ! Wind Speed {m/s}
  180,                                    ! Wind Direction {deg}
  0,                                      ! Sky Clearness
  0,                                      ! Rain Indicator
  0,                                      ! Snow Indicator
  21,                                     ! Day of Month
  7,                                      ! Month
  SummerDesignDay,                        ! Day Type
  0,                                      ! Daylight Saving Time Indicator
  Dewpoint,                               ! Humidity Indicating Type
  ,                                       ! Humidity Indicating Day Schedule Name
  DefaultMultipliers,                     ! Dry-Bulb Temperature Range Modifier Type
  ,                                       ! Dry-Bulb Temperature Range Modifier Schedule Name
  ASHRAETau,                              ! Solar Model Indicator
  ,                                       ! Beam Solar Day Schedule Name
  ,                                       ! Diffuse Solar Day Schedule Name
  0.43,                                   ! ASHRAE Taub {dimensionless}
  1.973;                                  ! ASHRAE Taud {dimensionless}

OS:ComponentData,
  {b28f22fb-bc22-4382-99da-f64d85501ee5}, ! Handle
  Component Data 1,                       ! Name
  {71711f2b-6a52-4de9-90bb-9d7982560282}, ! UUID
  {4e9b8098-b3f3-4ef9-858a-0040e5df0a5e}, ! Version UUID
  1366311792,                             ! Creation Timestamp
  1366311792,                             ! Version Timestamp
  {ae31c3da-152e-4958-9c06-e539c9b8e098}; ! Name of Object 1

