
OS:Version,
  {680d4ac4-3f97-4469-bcc9-7203ee11f710}, ! Handle
  0.9.3;                                  ! Version Identifier

OS:SizingPeriod:DesignDay,
  {cf41402b-9def-4916-8c89-78892a2a3abb}, ! Handle
  Rapid City Ann Htg Wind 99.6% Condns WS=>MCDB, ! Name
  -2.3,                                   ! Maximum Dry-Bulb Temperature {C}
  0,                                      ! Daily Dry-Bulb Temperature Range {deltaC}
  -2.3,                                   ! Humidity Indicating Conditions at Maximum Dry-Bulb {BasedOnField A3}
  90246,                                  ! Barometric Pressure {Pa}
  18,                                     ! Wind Speed {m/s}
  0,                                      ! Wind Direction {deg}
  0,                                      ! Sky Clearness
  0,                                      ! Rain Indicator
  0,                                      ! Snow Indicator
  21,                                     ! Day of Month
  1,                                      ! Month
  WinterDesignDay,                        ! Day Type
  0,                                      ! Daylight Saving Time Indicator
  Wetbulb,                                ! Humidity Indicating Type
  ,                                       ! Humidity Indicating Day Schedule Name
  DefaultMultipliers,                     ! Dry-Bulb Temperature Range Modifier Type
  ,                                       ! Dry-Bulb Temperature Range Modifier Schedule Name
  ASHRAEClearSky;                         ! Solar Model Indicator

OS:ComponentData,
  {bf7a0de6-e84c-4d98-9df5-178ba455961e}, ! Handle
  Component Data 1,                       ! Name
  {82a3fdb7-2441-4870-a8d6-d882b9327441}, ! UUID
  {d09d754d-9a25-4bd8-8236-fa66960803a5}, ! Version UUID
  1366310444,                             ! Creation Timestamp
  1366310444,                             ! Version Timestamp
  {cf41402b-9def-4916-8c89-78892a2a3abb}; ! Name of Object 1

