
OS:Version,
  {f7544f84-8cce-4d21-b594-d557e9153a25}, ! Handle
  0.9.3;                                  ! Version Identifier

OS:SizingPeriod:DesignDay,
  {309e6c37-1a2b-4e01-aaa5-4036f8fca7ca}, ! Handle
  Pine Bluff Faa Ap Ann Htg 99.6% Condns DB, ! Name
  -6.1,                                   ! Maximum Dry-Bulb Temperature {C}
  0,                                      ! Daily Dry-Bulb Temperature Range {deltaC}
  -6.1,                                   ! Humidity Indicating Conditions at Maximum Dry-Bulb {BasedOnField A3}
  100570,                                 ! Barometric Pressure {Pa}
  3.9,                                    ! Wind Speed {m/s}
  20,                                     ! Wind Direction {deg}
  0,                                      ! Sky Clearness
  0,                                      ! Rain Indicator
  0,                                      ! Snow Indicator
  21,                                     ! Day of Month
  1,                                      ! Month
  WinterDesignDay,                        ! Day Type
  0,                                      ! Daylight Saving Time Indicator
  Wetbulb,                                ! Humidity Indicating Type
  ,                                       ! Humidity Indicating Day Schedule Name
  DefaultMultipliers,                     ! Dry-Bulb Temperature Range Modifier Type
  ,                                       ! Dry-Bulb Temperature Range Modifier Schedule Name
  ASHRAEClearSky;                         ! Solar Model Indicator

OS:ComponentData,
  {b7e95336-9251-4112-b6cb-f201302262ee}, ! Handle
  Component Data 1,                       ! Name
  {be44d410-9992-4655-9b88-b458bd368df9}, ! UUID
  {4e1ee1b6-c648-4555-89b0-eee13d7f77d3}, ! Version UUID
  1366306238,                             ! Creation Timestamp
  1366306238,                             ! Version Timestamp
  {309e6c37-1a2b-4e01-aaa5-4036f8fca7ca}; ! Name of Object 1

