
OS:Version,
  {26e10c69-9246-4869-8c02-cb6dce3d3e6b}, ! Handle
  0.9.3;                                  ! Version Identifier

OS:SizingPeriod:DesignDay,
  {b1a8b8cf-1c73-457c-841f-8e3be53ef56a}, ! Handle
  Raleigh Durham International Ann Clg 1% Condns DP=>MDB, ! Name
  27.4,                                   ! Maximum Dry-Bulb Temperature {C}
  10.5,                                   ! Daily Dry-Bulb Temperature Range {deltaC}
  23.5,                                   ! Humidity Indicating Conditions at Maximum Dry-Bulb {BasedOnField A3}
  99809,                                  ! Barometric Pressure {Pa}
  4,                                      ! Wind Speed {m/s}
  240,                                    ! Wind Direction {deg}
  0,                                      ! Sky Clearness
  0,                                      ! Rain Indicator
  0,                                      ! Snow Indicator
  21,                                     ! Day of Month
  7,                                      ! Month
  SummerDesignDay,                        ! Day Type
  0,                                      ! Daylight Saving Time Indicator
  Dewpoint,                               ! Humidity Indicating Type
  ,                                       ! Humidity Indicating Day Schedule Name
  DefaultMultipliers,                     ! Dry-Bulb Temperature Range Modifier Type
  ,                                       ! Dry-Bulb Temperature Range Modifier Schedule Name
  ASHRAETau,                              ! Solar Model Indicator
  ,                                       ! Beam Solar Day Schedule Name
  ,                                       ! Diffuse Solar Day Schedule Name
  0.577,                                  ! ASHRAE Taub {dimensionless}
  1.722;                                  ! ASHRAE Taud {dimensionless}

OS:ComponentData,
  {c4065362-3cef-438a-8435-0f66e4fd0ac5}, ! Handle
  Component Data 1,                       ! Name
  {29294cd9-4f21-411a-8ce6-7eed9ff6a1c7}, ! UUID
  {d66e5e8a-ecb5-4058-b13d-b684cd5874bd}, ! Version UUID
  1366308974,                             ! Creation Timestamp
  1366308974,                             ! Version Timestamp
  {b1a8b8cf-1c73-457c-841f-8e3be53ef56a}; ! Name of Object 1

