
OS:Version,
  {e7d37fb6-ae3a-42ec-bb52-a7876446fab5}, ! Handle
  0.9.3;                                  ! Version Identifier

OS:SizingPeriod:DesignDay,
  {9aedbee9-39cb-42e6-8058-c7925b7661cb}, ! Handle
  NOME Ann Clg 1% Condns DB=>MWB,         ! Name
  18.3,                                   ! Maximum Dry-Bulb Temperature {C}
  5.9,                                    ! Daily Dry-Bulb Temperature Range {deltaC}
  13,                                     ! Humidity Indicating Conditions at Maximum Dry-Bulb {BasedOnField A3}
  101241,                                 ! Barometric Pressure {Pa}
  4.8,                                    ! Wind Speed {m/s}
  260,                                    ! Wind Direction {deg}
  0,                                      ! Sky Clearness
  0,                                      ! Rain Indicator
  0,                                      ! Snow Indicator
  21,                                     ! Day of Month
  7,                                      ! Month
  SummerDesignDay,                        ! Day Type
  0,                                      ! Daylight Saving Time Indicator
  Wetbulb,                                ! Humidity Indicating Type
  ,                                       ! Humidity Indicating Day Schedule Name
  DefaultMultipliers,                     ! Dry-Bulb Temperature Range Modifier Type
  ,                                       ! Dry-Bulb Temperature Range Modifier Schedule Name
  ASHRAETau,                              ! Solar Model Indicator
  ,                                       ! Beam Solar Day Schedule Name
  ,                                       ! Diffuse Solar Day Schedule Name
  0.408,                                  ! ASHRAE Taub {dimensionless}
  2.08;                                   ! ASHRAE Taud {dimensionless}

