
OS:Version,
  {943b0416-16b1-4d11-bbc2-3ee39c5f505c}, ! Handle
  0.9.3;                                  ! Version Identifier

OS:SizingPeriod:DesignDay,
  {313dc9b0-79d1-4f0a-926d-a4596df83539}, ! Handle
  NOME Ann Clg 1% Condns DB=>MWB,         ! Name
  18.3,                                   ! Maximum Dry-Bulb Temperature {C}
  5.9,                                    ! Daily Dry-Bulb Temperature Range {deltaC}
  13,                                     ! Humidity Indicating Conditions at Maximum Dry-Bulb {BasedOnField A3}
  101241,                                 ! Barometric Pressure {Pa}
  4.8,                                    ! Wind Speed {m/s}
  260,                                    ! Wind Direction {deg}
  0,                                      ! Sky Clearness
  0,                                      ! Rain Indicator
  0,                                      ! Snow Indicator
  21,                                     ! Day of Month
  7,                                      ! Month
  SummerDesignDay,                        ! Day Type
  0,                                      ! Daylight Saving Time Indicator
  Wetbulb,                                ! Humidity Indicating Type
  ,                                       ! Humidity Indicating Day Schedule Name
  DefaultMultipliers,                     ! Dry-Bulb Temperature Range Modifier Type
  ,                                       ! Dry-Bulb Temperature Range Modifier Schedule Name
  ASHRAETau,                              ! Solar Model Indicator
  ,                                       ! Beam Solar Day Schedule Name
  ,                                       ! Diffuse Solar Day Schedule Name
  0.408,                                  ! ASHRAE Taub {dimensionless}
  2.08;                                   ! ASHRAE Taud {dimensionless}

OS:ComponentData,
  {0f9ba7f8-38d5-4417-9ef8-342f647a50cc}, ! Handle
  Component Data 1,                       ! Name
  {05325951-03fc-4a7b-97df-848b8abbcbc7}, ! UUID
  {8f929e36-972f-4bce-9d93-df8b61c22ade}, ! Version UUID
  1366305446,                             ! Creation Timestamp
  1366305446,                             ! Version Timestamp
  {313dc9b0-79d1-4f0a-926d-a4596df83539}; ! Name of Object 1

