
OS:Version,
  {d2290369-ee1a-496b-bd8b-74e6edcecafe}, ! Handle
  0.9.3;                                  ! Version Identifier

OS:SizingPeriod:DesignDay,
  {a5bc9ff2-c99a-4a79-b149-0f74c1a66f83}, ! Handle
  Sioux Falls Foss Field Ann Clg .4% Condns Enth=>MDB, ! Name
  30.9,                                   ! Maximum Dry-Bulb Temperature {C}
  11.5,                                   ! Daily Dry-Bulb Temperature Range {deltaC}
  79500,                                  ! Humidity Indicating Conditions at Maximum Dry-Bulb {BasedOnField A3}
  96230,                                  ! Barometric Pressure {Pa}
  6.5,                                    ! Wind Speed {m/s}
  180,                                    ! Wind Direction {deg}
  0,                                      ! Sky Clearness
  0,                                      ! Rain Indicator
  0,                                      ! Snow Indicator
  21,                                     ! Day of Month
  7,                                      ! Month
  SummerDesignDay,                        ! Day Type
  0,                                      ! Daylight Saving Time Indicator
  Enthalpy,                               ! Humidity Indicating Type
  ,                                       ! Humidity Indicating Day Schedule Name
  DefaultMultipliers,                     ! Dry-Bulb Temperature Range Modifier Type
  ,                                       ! Dry-Bulb Temperature Range Modifier Schedule Name
  ASHRAETau,                              ! Solar Model Indicator
  ,                                       ! Beam Solar Day Schedule Name
  ,                                       ! Diffuse Solar Day Schedule Name
  0.392,                                  ! ASHRAE Taub {dimensionless}
  2.283;                                  ! ASHRAE Taud {dimensionless}

OS:ComponentData,
  {3349b2b9-21c5-46d7-b02e-417cbcd0c7ae}, ! Handle
  Component Data 1,                       ! Name
  {d5518787-f85e-49fb-b03a-9d7a16b57317}, ! UUID
  {0373b014-e204-4c97-abf2-670325ddbc7d}, ! Version UUID
  1366310460,                             ! Creation Timestamp
  1366310460,                             ! Version Timestamp
  {a5bc9ff2-c99a-4a79-b149-0f74c1a66f83}; ! Name of Object 1

