
OS:Version,
  {1efce3ae-0a8b-446d-a02d-ec87ffaabf2f}, ! Handle
  0.9.3;                                  ! Version Identifier

OS:SizingPeriod:DesignDay,
  {b1c17d27-3a65-4887-b4ad-37d342d8ca32}, ! Handle
  Yakutat State Arpt Ann Clg 2% Condns Enth=>MDB, ! Name
  15.4,                                   ! Maximum Dry-Bulb Temperature {C}
  5.8,                                    ! Daily Dry-Bulb Temperature Range {deltaC}
  37500,                                  ! Humidity Indicating Conditions at Maximum Dry-Bulb {BasedOnField A3}
  101229,                                 ! Barometric Pressure {Pa}
  3.4,                                    ! Wind Speed {m/s}
  320,                                    ! Wind Direction {deg}
  0,                                      ! Sky Clearness
  0,                                      ! Rain Indicator
  0,                                      ! Snow Indicator
  21,                                     ! Day of Month
  7,                                      ! Month
  SummerDesignDay,                        ! Day Type
  0,                                      ! Daylight Saving Time Indicator
  Enthalpy,                               ! Humidity Indicating Type
  ,                                       ! Humidity Indicating Day Schedule Name
  DefaultMultipliers,                     ! Dry-Bulb Temperature Range Modifier Type
  ,                                       ! Dry-Bulb Temperature Range Modifier Schedule Name
  ASHRAETau,                              ! Solar Model Indicator
  ,                                       ! Beam Solar Day Schedule Name
  ,                                       ! Diffuse Solar Day Schedule Name
  0.371,                                  ! ASHRAE Taub {dimensionless}
  2.194;                                  ! ASHRAE Taud {dimensionless}

OS:ComponentData,
  {8540eec5-ba6c-4b35-afa0-1244b638eaf5}, ! Handle
  Component Data 1,                       ! Name
  {f66019f7-7c3a-4be9-9c25-7cac57d49e44}, ! UUID
  {cff6b166-f645-42b9-9476-0e89dd7cde2e}, ! Version UUID
  1366305631,                             ! Creation Timestamp
  1366305631,                             ! Version Timestamp
  {b1c17d27-3a65-4887-b4ad-37d342d8ca32}; ! Name of Object 1

