
OS:Version,
  {e5054dcf-36ca-46e7-9eca-cc25dcf64bc7}, ! Handle
  0.9.3;                                  ! Version Identifier

OS:SizingPeriod:DesignDay,
  {05e2a75b-c3e8-4c7b-8aaa-29801ddb38d7}, ! Handle
  Orlando Sanford Airport Ann Hum_n 99% Condns DP=>MCDB, ! Name
  10,                                     ! Maximum Dry-Bulb Temperature {C}
  0,                                      ! Daily Dry-Bulb Temperature Range {deltaC}
  -3,                                     ! Humidity Indicating Conditions at Maximum Dry-Bulb {BasedOnField A3}
  101121,                                 ! Barometric Pressure {Pa}
  3.7,                                    ! Wind Speed {m/s}
  300,                                    ! Wind Direction {deg}
  0,                                      ! Sky Clearness
  0,                                      ! Rain Indicator
  0,                                      ! Snow Indicator
  21,                                     ! Day of Month
  1,                                      ! Month
  WinterDesignDay,                        ! Day Type
  0,                                      ! Daylight Saving Time Indicator
  Dewpoint,                               ! Humidity Indicating Type
  ,                                       ! Humidity Indicating Day Schedule Name
  DefaultMultipliers,                     ! Dry-Bulb Temperature Range Modifier Type
  ,                                       ! Dry-Bulb Temperature Range Modifier Schedule Name
  ASHRAEClearSky;                         ! Solar Model Indicator

OS:ComponentData,
  {bc7d0186-4b3a-41df-abc9-013b11f43c01}, ! Handle
  Component Data 1,                       ! Name
  {4d3a1e5d-228b-4c33-b98d-703739b249de}, ! UUID
  {e92ed5d4-9f12-4bf6-8846-f622ea70df24}, ! Version UUID
  1366306883,                             ! Creation Timestamp
  1366306883,                             ! Version Timestamp
  {05e2a75b-c3e8-4c7b-8aaa-29801ddb38d7}; ! Name of Object 1

