
OS:Version,
  {724810df-8c32-49c1-ba91-e58f3614fb3d}, ! Handle
  0.9.3;                                  ! Version Identifier

OS:SizingPeriod:DesignDay,
  {95fd8d0e-966e-4aeb-9a76-6b255db1a14e}, ! Handle
  Quincy Muni Baldwin Fld Ann Clg 1% Condns DB=>MWB, ! Name
  32.4,                                   ! Maximum Dry-Bulb Temperature {C}
  10.4,                                   ! Daily Dry-Bulb Temperature Range {deltaC}
  24.1,                                   ! Humidity Indicating Conditions at Maximum Dry-Bulb {BasedOnField A3}
  98557,                                  ! Barometric Pressure {Pa}
  4.8,                                    ! Wind Speed {m/s}
  220,                                    ! Wind Direction {deg}
  0,                                      ! Sky Clearness
  0,                                      ! Rain Indicator
  0,                                      ! Snow Indicator
  21,                                     ! Day of Month
  7,                                      ! Month
  SummerDesignDay,                        ! Day Type
  0,                                      ! Daylight Saving Time Indicator
  Wetbulb,                                ! Humidity Indicating Type
  ,                                       ! Humidity Indicating Day Schedule Name
  DefaultMultipliers,                     ! Dry-Bulb Temperature Range Modifier Type
  ,                                       ! Dry-Bulb Temperature Range Modifier Schedule Name
  ASHRAETau,                              ! Solar Model Indicator
  ,                                       ! Beam Solar Day Schedule Name
  ,                                       ! Diffuse Solar Day Schedule Name
  0.446,                                  ! ASHRAE Taub {dimensionless}
  2.091;                                  ! ASHRAE Taud {dimensionless}

OS:ComponentData,
  {767f9fff-2002-4a67-afd9-5d68642e0daa}, ! Handle
  Component Data 1,                       ! Name
  {31d7ecfc-43e7-45d5-ab27-f361fdfb1c07}, ! UUID
  {20ac0df2-6dfa-4277-bc26-fdec1b1c73dc}, ! Version UUID
  1366307388,                             ! Creation Timestamp
  1366307388,                             ! Version Timestamp
  {95fd8d0e-966e-4aeb-9a76-6b255db1a14e}; ! Name of Object 1

