
OS:Version,
  {ee5a4454-f67d-4e9d-81a4-3453f52c78d9}, ! Handle
  0.9.3;                                  ! Version Identifier

OS:SizingPeriod:DesignDay,
  {b877a265-7a2d-4bde-ab4e-563bab9f139a}, ! Handle
  ST_PAUL Ann Clg 2% Condns DB=>MWB,      ! Name
  11,                                     ! Maximum Dry-Bulb Temperature {C}
  3.1,                                    ! Daily Dry-Bulb Temperature Range {deltaC}
  9.9,                                    ! Humidity Indicating Conditions at Maximum Dry-Bulb {BasedOnField A3}
  101241,                                 ! Barometric Pressure {Pa}
  6,                                      ! Wind Speed {m/s}
  350,                                    ! Wind Direction {deg}
  0,                                      ! Sky Clearness
  0,                                      ! Rain Indicator
  0,                                      ! Snow Indicator
  21,                                     ! Day of Month
  8,                                      ! Month
  SummerDesignDay,                        ! Day Type
  0,                                      ! Daylight Saving Time Indicator
  Wetbulb,                                ! Humidity Indicating Type
  ,                                       ! Humidity Indicating Day Schedule Name
  DefaultMultipliers,                     ! Dry-Bulb Temperature Range Modifier Type
  ,                                       ! Dry-Bulb Temperature Range Modifier Schedule Name
  ASHRAETau,                              ! Solar Model Indicator
  ,                                       ! Beam Solar Day Schedule Name
  ,                                       ! Diffuse Solar Day Schedule Name
  0.39,                                   ! ASHRAE Taub {dimensionless}
  2.227;                                  ! ASHRAE Taud {dimensionless}

OS:ComponentData,
  {cb8ddeee-afb2-42bf-bba3-902e25cf4306}, ! Handle
  Component Data 1,                       ! Name
  {94ba7104-643d-4f65-91c2-b523d8ae1b96}, ! UUID
  {8037dee5-d189-41bf-b783-a34be21fcbfb}, ! Version UUID
  1366305573,                             ! Creation Timestamp
  1366305573,                             ! Version Timestamp
  {b877a265-7a2d-4bde-ab4e-563bab9f139a}; ! Name of Object 1

