
OS:Version,
  {1a065da7-1c94-4aff-adb9-b9d196ee95e2}, ! Handle
  0.9.3;                                  ! Version Identifier

OS:SizingPeriod:DesignDay,
  {a76ff116-a9d2-4485-8bee-3411988ef55f}, ! Handle
  RALEIGH Ann Hum_n 99% Condns DP=>MCDB,  ! Name
  -1.7,                                   ! Maximum Dry-Bulb Temperature {C}
  0,                                      ! Daily Dry-Bulb Temperature Range {deltaC}
  -14.7,                                  ! Humidity Indicating Conditions at Maximum Dry-Bulb {BasedOnField A3}
  99726,                                  ! Barometric Pressure {Pa}
  2.8,                                    ! Wind Speed {m/s}
  30,                                     ! Wind Direction {deg}
  0,                                      ! Sky Clearness
  0,                                      ! Rain Indicator
  0,                                      ! Snow Indicator
  21,                                     ! Day of Month
  1,                                      ! Month
  WinterDesignDay,                        ! Day Type
  0,                                      ! Daylight Saving Time Indicator
  Dewpoint,                               ! Humidity Indicating Type
  ,                                       ! Humidity Indicating Day Schedule Name
  DefaultMultipliers,                     ! Dry-Bulb Temperature Range Modifier Type
  ,                                       ! Dry-Bulb Temperature Range Modifier Schedule Name
  ASHRAEClearSky;                         ! Solar Model Indicator

OS:ComponentData,
  {4203e70f-9bbe-4b00-9715-3d3c882efc23}, ! Handle
  Component Data 1,                       ! Name
  {2401286e-f2c4-465f-92fd-fa0616c4c903}, ! UUID
  {333bf056-942a-4050-9004-c14aa0e16f65}, ! Version UUID
  1366308964,                             ! Creation Timestamp
  1366308964,                             ! Version Timestamp
  {a76ff116-a9d2-4485-8bee-3411988ef55f}; ! Name of Object 1

