
OS:Version,
  {d3f7c960-6793-4dd6-9f29-ca238ce9ba2b}, ! Handle
  0.9.3;                                  ! Version Identifier

OS:SizingPeriod:DesignDay,
  {e61e2789-b55b-48cc-8b50-7c68b4c400ca}, ! Handle
  Tallahassee Ann Clg 1% Condns Enth=>MDB, ! Name
  31.2,                                   ! Maximum Dry-Bulb Temperature {C}
  10.6,                                   ! Daily Dry-Bulb Temperature Range {deltaC}
  80500,                                  ! Humidity Indicating Conditions at Maximum Dry-Bulb {BasedOnField A3}
  101073,                                 ! Barometric Pressure {Pa}
  3.4,                                    ! Wind Speed {m/s}
  10,                                     ! Wind Direction {deg}
  0,                                      ! Sky Clearness
  0,                                      ! Rain Indicator
  0,                                      ! Snow Indicator
  21,                                     ! Day of Month
  7,                                      ! Month
  SummerDesignDay,                        ! Day Type
  0,                                      ! Daylight Saving Time Indicator
  Enthalpy,                               ! Humidity Indicating Type
  ,                                       ! Humidity Indicating Day Schedule Name
  DefaultMultipliers,                     ! Dry-Bulb Temperature Range Modifier Type
  ,                                       ! Dry-Bulb Temperature Range Modifier Schedule Name
  ASHRAETau,                              ! Solar Model Indicator
  ,                                       ! Beam Solar Day Schedule Name
  ,                                       ! Diffuse Solar Day Schedule Name
  0.537,                                  ! ASHRAE Taub {dimensionless}
  1.879;                                  ! ASHRAE Taud {dimensionless}

OS:ComponentData,
  {19b872b7-f581-4422-98c4-3412da1e1f63}, ! Handle
  Component Data 1,                       ! Name
  {8e485957-3374-448f-9ee4-452fc0d4cdcb}, ! UUID
  {cfa8462a-db8d-4807-94da-b2ee50edbb80}, ! Version UUID
  1366306924,                             ! Creation Timestamp
  1366306924,                             ! Version Timestamp
  {e61e2789-b55b-48cc-8b50-7c68b4c400ca}; ! Name of Object 1

