
OS:Version,
  {ddc0ec55-1a69-4a2d-b40a-029e9e01e7a0}, ! Handle
  0.9.3;                                  ! Version Identifier

OS:SizingPeriod:DesignDay,
  {010179e5-84ad-4d59-8738-ae210043d040}, ! Handle
  Milwaukee Ann Hum_n 99.6% Condns DP=>MCDB, ! Name
  -18.9,                                  ! Maximum Dry-Bulb Temperature {C}
  0,                                      ! Daily Dry-Bulb Temperature Range {deltaC}
  -26.1,                                  ! Humidity Indicating Conditions at Maximum Dry-Bulb {BasedOnField A3}
  98816,                                  ! Barometric Pressure {Pa}
  5.7,                                    ! Wind Speed {m/s}
  300,                                    ! Wind Direction {deg}
  0,                                      ! Sky Clearness
  0,                                      ! Rain Indicator
  0,                                      ! Snow Indicator
  21,                                     ! Day of Month
  1,                                      ! Month
  WinterDesignDay,                        ! Day Type
  0,                                      ! Daylight Saving Time Indicator
  Dewpoint,                               ! Humidity Indicating Type
  ,                                       ! Humidity Indicating Day Schedule Name
  DefaultMultipliers,                     ! Dry-Bulb Temperature Range Modifier Type
  ,                                       ! Dry-Bulb Temperature Range Modifier Schedule Name
  ASHRAEClearSky;                         ! Solar Model Indicator

