
OS:Version,
  {221fc83a-9cf8-4b2b-aaa6-6a8cdca58392}, ! Handle
  0.9.3;                                  ! Version Identifier

OS:SizingPeriod:DesignDay,
  {fdb67bfb-10ed-47a5-8c0e-3d22113eb2cd}, ! Handle
  Madison Dane Co Regional Arpt Ann Clg 1% Condns DB=>MWB, ! Name
  30.5,                                   ! Maximum Dry-Bulb Temperature {C}
  11.1,                                   ! Daily Dry-Bulb Temperature Range {deltaC}
  22.7,                                   ! Humidity Indicating Conditions at Maximum Dry-Bulb {BasedOnField A3}
  98217,                                  ! Barometric Pressure {Pa}
  5.1,                                    ! Wind Speed {m/s}
  180,                                    ! Wind Direction {deg}
  0,                                      ! Sky Clearness
  0,                                      ! Rain Indicator
  0,                                      ! Snow Indicator
  21,                                     ! Day of Month
  7,                                      ! Month
  SummerDesignDay,                        ! Day Type
  0,                                      ! Daylight Saving Time Indicator
  Wetbulb,                                ! Humidity Indicating Type
  ,                                       ! Humidity Indicating Day Schedule Name
  DefaultMultipliers,                     ! Dry-Bulb Temperature Range Modifier Type
  ,                                       ! Dry-Bulb Temperature Range Modifier Schedule Name
  ASHRAETau,                              ! Solar Model Indicator
  ,                                       ! Beam Solar Day Schedule Name
  ,                                       ! Diffuse Solar Day Schedule Name
  0.435,                                  ! ASHRAE Taub {dimensionless}
  2.109;                                  ! ASHRAE Taud {dimensionless}

OS:ComponentData,
  {832be8f7-bcf6-49b4-82aa-5f5a98ef7d4f}, ! Handle
  Component Data 1,                       ! Name
  {4c7021c5-66f7-45ae-b617-3da608a9b42c}, ! UUID
  {2d02971b-6d13-4716-b083-dca41168c1c6}, ! Version UUID
  1366311526,                             ! Creation Timestamp
  1366311526,                             ! Version Timestamp
  {fdb67bfb-10ed-47a5-8c0e-3d22113eb2cd}; ! Name of Object 1

