
OS:Version,
  {99a63b0a-3dd3-4e30-9786-ec0a565096e4}, ! Handle
  0.9.3;                                  ! Version Identifier

OS:SizingPeriod:DesignDay,
  {909d6d87-171b-47ae-a049-3058da9127a5}, ! Handle
  Travis Field Afb Ann Htg Wind 99.6% Condns WS=>MCDB, ! Name
  11.5,                                   ! Maximum Dry-Bulb Temperature {C}
  0,                                      ! Daily Dry-Bulb Temperature Range {deltaC}
  11.5,                                   ! Humidity Indicating Conditions at Maximum Dry-Bulb {BasedOnField A3}
  101109,                                 ! Barometric Pressure {Pa}
  12.8,                                   ! Wind Speed {m/s}
  20,                                     ! Wind Direction {deg}
  0,                                      ! Sky Clearness
  0,                                      ! Rain Indicator
  0,                                      ! Snow Indicator
  21,                                     ! Day of Month
  1,                                      ! Month
  WinterDesignDay,                        ! Day Type
  0,                                      ! Daylight Saving Time Indicator
  Wetbulb,                                ! Humidity Indicating Type
  ,                                       ! Humidity Indicating Day Schedule Name
  DefaultMultipliers,                     ! Dry-Bulb Temperature Range Modifier Type
  ,                                       ! Dry-Bulb Temperature Range Modifier Schedule Name
  ASHRAEClearSky;                         ! Solar Model Indicator

OS:ComponentData,
  {38fad17c-ccdc-4d59-95b5-a9a94ac092f1}, ! Handle
  Component Data 1,                       ! Name
  {e646b19b-95bd-488d-8d65-569001f72a51}, ! UUID
  {90af590a-5093-43c7-95e8-cc715c1a276a}, ! Version UUID
  1366306425,                             ! Creation Timestamp
  1366306425,                             ! Version Timestamp
  {909d6d87-171b-47ae-a049-3058da9127a5}; ! Name of Object 1

