
OS:Version,
  {6e69e6c0-cd8a-4537-a8a5-cf7e240abaec}, ! Handle
  0.9.3;                                  ! Version Identifier

OS:SizingPeriod:DesignDay,
  {08da6511-5895-4b3c-8d8b-68b0efb71755}, ! Handle
  Wichita Col  Jabara Ann Clg .4% Condns Enth=>MDB, ! Name
  32.4,                                   ! Maximum Dry-Bulb Temperature {C}
  12,                                     ! Daily Dry-Bulb Temperature Range {deltaC}
  79100,                                  ! Humidity Indicating Conditions at Maximum Dry-Bulb {BasedOnField A3}
  96230,                                  ! Barometric Pressure {Pa}
  6.2,                                    ! Wind Speed {m/s}
  180,                                    ! Wind Direction {deg}
  0,                                      ! Sky Clearness
  0,                                      ! Rain Indicator
  0,                                      ! Snow Indicator
  21,                                     ! Day of Month
  7,                                      ! Month
  SummerDesignDay,                        ! Day Type
  0,                                      ! Daylight Saving Time Indicator
  Enthalpy,                               ! Humidity Indicating Type
  ,                                       ! Humidity Indicating Day Schedule Name
  DefaultMultipliers,                     ! Dry-Bulb Temperature Range Modifier Type
  ,                                       ! Dry-Bulb Temperature Range Modifier Schedule Name
  ASHRAETau,                              ! Solar Model Indicator
  ,                                       ! Beam Solar Day Schedule Name
  ,                                       ! Diffuse Solar Day Schedule Name
  0.418,                                  ! ASHRAE Taub {dimensionless}
  2.21;                                   ! ASHRAE Taud {dimensionless}

OS:ComponentData,
  {b936bb55-568b-46db-8e58-6864cd3735fc}, ! Handle
  Component Data 1,                       ! Name
  {cf261821-c46c-4110-b9a4-98b6501ba3c7}, ! UUID
  {085968df-02fe-4081-bab4-c42235e96bfc}, ! Version UUID
  1366307596,                             ! Creation Timestamp
  1366307596,                             ! Version Timestamp
  {08da6511-5895-4b3c-8d8b-68b0efb71755}; ! Name of Object 1

