
OS:Version,
  {74933b7c-beeb-46d9-8926-8d8ae62359a9}, ! Handle
  0.9.3;                                  ! Version Identifier

OS:SizingPeriod:DesignDay,
  {b0c39ae2-7f38-4dae-81df-dd234e34fc0d}, ! Handle
  Richmond International Ap Ann Hum_n 99.6% Condns DP=>MCDB, ! Name
  -5,                                     ! Maximum Dry-Bulb Temperature {C}
  0,                                      ! Daily Dry-Bulb Temperature Range {deltaC}
  -17.8,                                  ! Humidity Indicating Conditions at Maximum Dry-Bulb {BasedOnField A3}
  100726,                                 ! Barometric Pressure {Pa}
  3.4,                                    ! Wind Speed {m/s}
  0,                                      ! Wind Direction {deg}
  0,                                      ! Sky Clearness
  0,                                      ! Rain Indicator
  0,                                      ! Snow Indicator
  21,                                     ! Day of Month
  1,                                      ! Month
  WinterDesignDay,                        ! Day Type
  0,                                      ! Daylight Saving Time Indicator
  Dewpoint,                               ! Humidity Indicating Type
  ,                                       ! Humidity Indicating Day Schedule Name
  DefaultMultipliers,                     ! Dry-Bulb Temperature Range Modifier Type
  ,                                       ! Dry-Bulb Temperature Range Modifier Schedule Name
  ASHRAEClearSky;                         ! Solar Model Indicator

OS:ComponentData,
  {0364cb3d-d85d-454e-a366-e64aecbf0e0f}, ! Handle
  Component Data 1,                       ! Name
  {74625172-3887-402b-a68b-2bf2cee3ef46}, ! UUID
  {7392344f-23a3-4203-a991-70ceb523b812}, ! Version UUID
  1366311173,                             ! Creation Timestamp
  1366311173,                             ! Version Timestamp
  {b0c39ae2-7f38-4dae-81df-dd234e34fc0d}; ! Name of Object 1

