
OS:Version,
  {3e314247-a365-4b2d-ba32-8d358be8983d}, ! Handle
  0.9.3;                                  ! Version Identifier

OS:SizingPeriod:DesignDay,
  {5768058a-5da3-4eae-8cc9-61ed70caf1a4}, ! Handle
  Sheridan County Arpt Ann Clg .4% Condns DP=>MDB, ! Name
  23.6,                                   ! Maximum Dry-Bulb Temperature {C}
  17.2,                                   ! Daily Dry-Bulb Temperature Range {deltaC}
  16.3,                                   ! Humidity Indicating Conditions at Maximum Dry-Bulb {BasedOnField A3}
  87630,                                  ! Barometric Pressure {Pa}
  3.7,                                    ! Wind Speed {m/s}
  310,                                    ! Wind Direction {deg}
  0,                                      ! Sky Clearness
  0,                                      ! Rain Indicator
  0,                                      ! Snow Indicator
  21,                                     ! Day of Month
  7,                                      ! Month
  SummerDesignDay,                        ! Day Type
  0,                                      ! Daylight Saving Time Indicator
  Dewpoint,                               ! Humidity Indicating Type
  ,                                       ! Humidity Indicating Day Schedule Name
  DefaultMultipliers,                     ! Dry-Bulb Temperature Range Modifier Type
  ,                                       ! Dry-Bulb Temperature Range Modifier Schedule Name
  ASHRAETau,                              ! Solar Model Indicator
  ,                                       ! Beam Solar Day Schedule Name
  ,                                       ! Diffuse Solar Day Schedule Name
  0.407,                                  ! ASHRAE Taub {dimensionless}
  2.098;                                  ! ASHRAE Taud {dimensionless}

OS:ComponentData,
  {5dadd010-a762-49a5-a9cc-6bbcdbaaec54}, ! Handle
  Component Data 1,                       ! Name
  {801e83d4-1694-476d-a980-002446ff618d}, ! UUID
  {ccc1571d-826c-4209-a427-9a9781d0ea31}, ! Version UUID
  1366311787,                             ! Creation Timestamp
  1366311787,                             ! Version Timestamp
  {5768058a-5da3-4eae-8cc9-61ed70caf1a4}; ! Name of Object 1

