
OS:Version,
  {ae40d71a-9082-4448-8aed-cc1940319401}, ! Handle
  0.9.3;                                  ! Version Identifier

OS:SizingPeriod:DesignDay,
  {faca66cd-2f54-49a3-b1da-f8b42cf2a795}, ! Handle
  Olympia Ann Clg .4% Condns Enth=>MDB,   ! Name
  29.4,                                   ! Maximum Dry-Bulb Temperature {C}
  14.6,                                   ! Daily Dry-Bulb Temperature Range {deltaC}
  56600,                                  ! Humidity Indicating Conditions at Maximum Dry-Bulb {BasedOnField A3}
  100594,                                 ! Barometric Pressure {Pa}
  3.4,                                    ! Wind Speed {m/s}
  20,                                     ! Wind Direction {deg}
  0,                                      ! Sky Clearness
  0,                                      ! Rain Indicator
  0,                                      ! Snow Indicator
  21,                                     ! Day of Month
  8,                                      ! Month
  SummerDesignDay,                        ! Day Type
  0,                                      ! Daylight Saving Time Indicator
  Enthalpy,                               ! Humidity Indicating Type
  ,                                       ! Humidity Indicating Day Schedule Name
  DefaultMultipliers,                     ! Dry-Bulb Temperature Range Modifier Type
  ,                                       ! Dry-Bulb Temperature Range Modifier Schedule Name
  ASHRAETau,                              ! Solar Model Indicator
  ,                                       ! Beam Solar Day Schedule Name
  ,                                       ! Diffuse Solar Day Schedule Name
  0.359,                                  ! ASHRAE Taub {dimensionless}
  2.536;                                  ! ASHRAE Taud {dimensionless}

OS:ComponentData,
  {f2160cf3-4de2-4876-af5e-4cd44140079c}, ! Handle
  Component Data 1,                       ! Name
  {218cb9fb-78cc-4d7b-a331-2813134bcd6f}, ! UUID
  {73e01ad7-ff8a-4fda-9964-b0dd100a9dad}, ! Version UUID
  1366311310,                             ! Creation Timestamp
  1366311310,                             ! Version Timestamp
  {faca66cd-2f54-49a3-b1da-f8b42cf2a795}; ! Name of Object 1

