
OS:Version,
  {a4c60600-3186-497a-9cce-ef3e7907864e}, ! Handle
  0.9.3;                                  ! Version Identifier

OS:SizingPeriod:DesignDay,
  {55ab702f-cf82-473c-ac5c-52c01185a52b}, ! Handle
  South Bend Michiana Rgnl Ap Ann Clg 2% Condns WB=>MDB, ! Name
  27.7,                                   ! Maximum Dry-Bulb Temperature {C}
  10.4,                                   ! Daily Dry-Bulb Temperature Range {deltaC}
  23.4,                                   ! Humidity Indicating Conditions at Maximum Dry-Bulb {BasedOnField A3}
  98522,                                  ! Barometric Pressure {Pa}
  5.2,                                    ! Wind Speed {m/s}
  220,                                    ! Wind Direction {deg}
  0,                                      ! Sky Clearness
  0,                                      ! Rain Indicator
  0,                                      ! Snow Indicator
  21,                                     ! Day of Month
  7,                                      ! Month
  SummerDesignDay,                        ! Day Type
  0,                                      ! Daylight Saving Time Indicator
  Wetbulb,                                ! Humidity Indicating Type
  ,                                       ! Humidity Indicating Day Schedule Name
  DefaultMultipliers,                     ! Dry-Bulb Temperature Range Modifier Type
  ,                                       ! Dry-Bulb Temperature Range Modifier Schedule Name
  ASHRAETau,                              ! Solar Model Indicator
  ,                                       ! Beam Solar Day Schedule Name
  ,                                       ! Diffuse Solar Day Schedule Name
  0.433,                                  ! ASHRAE Taub {dimensionless}
  2.144;                                  ! ASHRAE Taud {dimensionless}

OS:ComponentData,
  {42b3342a-7905-496e-aa82-43abaf7f1dea}, ! Handle
  Component Data 1,                       ! Name
  {08129a1a-ca4f-4a80-b9eb-69ffd2cba717}, ! UUID
  {06eb1c4b-d40c-4d5d-b416-0eb2870cdb91}, ! Version UUID
  1366307484,                             ! Creation Timestamp
  1366307484,                             ! Version Timestamp
  {55ab702f-cf82-473c-ac5c-52c01185a52b}; ! Name of Object 1

