
OS:Version,
  {9e3ccb8f-d6e7-4afa-ad94-7a6c63636525}, ! Handle
  0.9.3;                                  ! Version Identifier

OS:SizingPeriod:DesignDay,
  {88cffdbd-065f-4dcf-aebd-da835b59e4e9}, ! Handle
  WINNEMUCCA Ann Clg .4% Condns DB=>MWB,  ! Name
  36.4,                                   ! Maximum Dry-Bulb Temperature {C}
  21.5,                                   ! Daily Dry-Bulb Temperature Range {deltaC}
  17.1,                                   ! Humidity Indicating Conditions at Maximum Dry-Bulb {BasedOnField A3}
  86409,                                  ! Barometric Pressure {Pa}
  4.4,                                    ! Wind Speed {m/s}
  240,                                    ! Wind Direction {deg}
  0,                                      ! Sky Clearness
  0,                                      ! Rain Indicator
  0,                                      ! Snow Indicator
  21,                                     ! Day of Month
  7,                                      ! Month
  SummerDesignDay,                        ! Day Type
  0,                                      ! Daylight Saving Time Indicator
  Wetbulb,                                ! Humidity Indicating Type
  ,                                       ! Humidity Indicating Day Schedule Name
  DefaultMultipliers,                     ! Dry-Bulb Temperature Range Modifier Type
  ,                                       ! Dry-Bulb Temperature Range Modifier Schedule Name
  ASHRAETau,                              ! Solar Model Indicator
  ,                                       ! Beam Solar Day Schedule Name
  ,                                       ! Diffuse Solar Day Schedule Name
  0.441,                                  ! ASHRAE Taub {dimensionless}
  1.893;                                  ! ASHRAE Taud {dimensionless}

