
OS:Version,
  {68bd1ff9-c71f-4a5a-99af-87d5dc3b6843}, ! Handle
  0.9.3;                                  ! Version Identifier

OS:SizingPeriod:DesignDay,
  {b8c090bb-d10d-4e01-8e70-cf6c07c7c822}, ! Handle
  WINNEMUCCA Ann Clg .4% Condns DB=>MWB,  ! Name
  36.4,                                   ! Maximum Dry-Bulb Temperature {C}
  21.5,                                   ! Daily Dry-Bulb Temperature Range {deltaC}
  17.1,                                   ! Humidity Indicating Conditions at Maximum Dry-Bulb {BasedOnField A3}
  86409,                                  ! Barometric Pressure {Pa}
  4.4,                                    ! Wind Speed {m/s}
  240,                                    ! Wind Direction {deg}
  0,                                      ! Sky Clearness
  0,                                      ! Rain Indicator
  0,                                      ! Snow Indicator
  21,                                     ! Day of Month
  7,                                      ! Month
  SummerDesignDay,                        ! Day Type
  0,                                      ! Daylight Saving Time Indicator
  Wetbulb,                                ! Humidity Indicating Type
  ,                                       ! Humidity Indicating Day Schedule Name
  DefaultMultipliers,                     ! Dry-Bulb Temperature Range Modifier Type
  ,                                       ! Dry-Bulb Temperature Range Modifier Schedule Name
  ASHRAETau,                              ! Solar Model Indicator
  ,                                       ! Beam Solar Day Schedule Name
  ,                                       ! Diffuse Solar Day Schedule Name
  0.441,                                  ! ASHRAE Taub {dimensionless}
  1.893;                                  ! ASHRAE Taud {dimensionless}

OS:ComponentData,
  {be69684a-ec95-4a2f-8ce8-546cc6282cf5}, ! Handle
  Component Data 1,                       ! Name
  {434136b3-a83d-43d7-b920-7ee8ae8deb09}, ! UUID
  {689438ef-01b3-4c15-bf73-5ac8d80c5978}, ! Version UUID
  1366309559,                             ! Creation Timestamp
  1366309559,                             ! Version Timestamp
  {b8c090bb-d10d-4e01-8e70-cf6c07c7c822}; ! Name of Object 1

