
OS:Version,
  {893a742b-770f-45b2-8697-8914310546d1}, ! Handle
  0.9.3;                                  ! Version Identifier

OS:SizingPeriod:DesignDay,
  {4df4e890-cdaf-4480-9c36-4aaff88d39ea}, ! Handle
  MISSOULA Ann Clg 1% Condns DP=>MDB,     ! Name
  20.2,                                   ! Maximum Dry-Bulb Temperature {C}
  17.5,                                   ! Daily Dry-Bulb Temperature Range {deltaC}
  14,                                     ! Humidity Indicating Conditions at Maximum Dry-Bulb {BasedOnField A3}
  90180,                                  ! Barometric Pressure {Pa}
  4.4,                                    ! Wind Speed {m/s}
  320,                                    ! Wind Direction {deg}
  0,                                      ! Sky Clearness
  0,                                      ! Rain Indicator
  0,                                      ! Snow Indicator
  21,                                     ! Day of Month
  7,                                      ! Month
  SummerDesignDay,                        ! Day Type
  0,                                      ! Daylight Saving Time Indicator
  Dewpoint,                               ! Humidity Indicating Type
  ,                                       ! Humidity Indicating Day Schedule Name
  DefaultMultipliers,                     ! Dry-Bulb Temperature Range Modifier Type
  ,                                       ! Dry-Bulb Temperature Range Modifier Schedule Name
  ASHRAETau,                              ! Solar Model Indicator
  ,                                       ! Beam Solar Day Schedule Name
  ,                                       ! Diffuse Solar Day Schedule Name
  0.357,                                  ! ASHRAE Taub {dimensionless}
  2.409;                                  ! ASHRAE Taud {dimensionless}

OS:ComponentData,
  {da01f836-c21f-4dc2-ab04-a53b1881c94f}, ! Handle
  Component Data 1,                       ! Name
  {34d6bf96-536e-47c3-af6f-e225ec847172}, ! UUID
  {3e6ebbe0-fe98-4191-b9d1-c45ca3926344}, ! Version UUID
  1366308842,                             ! Creation Timestamp
  1366308842,                             ! Version Timestamp
  {4df4e890-cdaf-4480-9c36-4aaff88d39ea}; ! Name of Object 1

