
OS:Version,
  {ed810489-8ca9-4409-91f1-0eb76d901468}, ! Handle
  0.9.3;                                  ! Version Identifier

OS:SizingPeriod:DesignDay,
  {e07da97c-aa8a-4d24-af04-3d6b9909f5e2}, ! Handle
  White Plains Westchester Co A Ann Clg 2% Condns DP=>MDB, ! Name
  25.5,                                   ! Maximum Dry-Bulb Temperature {C}
  9.6,                                    ! Daily Dry-Bulb Temperature Range {deltaC}
  22.1,                                   ! Humidity Indicating Conditions at Maximum Dry-Bulb {BasedOnField A3}
  99868,                                  ! Barometric Pressure {Pa}
  3.8,                                    ! Wind Speed {m/s}
  270,                                    ! Wind Direction {deg}
  0,                                      ! Sky Clearness
  0,                                      ! Rain Indicator
  0,                                      ! Snow Indicator
  21,                                     ! Day of Month
  7,                                      ! Month
  SummerDesignDay,                        ! Day Type
  0,                                      ! Daylight Saving Time Indicator
  Dewpoint,                               ! Humidity Indicating Type
  ,                                       ! Humidity Indicating Day Schedule Name
  DefaultMultipliers,                     ! Dry-Bulb Temperature Range Modifier Type
  ,                                       ! Dry-Bulb Temperature Range Modifier Schedule Name
  ASHRAETau,                              ! Solar Model Indicator
  ,                                       ! Beam Solar Day Schedule Name
  ,                                       ! Diffuse Solar Day Schedule Name
  0.506,                                  ! ASHRAE Taub {dimensionless}
  1.88;                                   ! ASHRAE Taud {dimensionless}

OS:ComponentData,
  {a239c79a-edac-4900-89ad-adbc20f71b66}, ! Handle
  Component Data 1,                       ! Name
  {f554e757-5405-463c-b86c-2b8daef0b7d6}, ! UUID
  {d7dbb94b-6c0e-4ca4-b7f3-71a806683ff4}, ! Version UUID
  1366309756,                             ! Creation Timestamp
  1366309756,                             ! Version Timestamp
  {e07da97c-aa8a-4d24-af04-3d6b9909f5e2}; ! Name of Object 1

