
OS:Version,
  {04845d63-1106-4b12-944f-5c51466482ce}, ! Handle
  0.9.3;                                  ! Version Identifier

OS:SizingPeriod:DesignDay,
  {b0f9ebdc-9c00-4c9a-b351-07bffb54fc3f}, ! Handle
  TRAVERSE_CITY Ann Htg Wind 99% Condns WS=>MCDB, ! Name
  -3,                                     ! Maximum Dry-Bulb Temperature {C}
  0,                                      ! Daily Dry-Bulb Temperature Range {deltaC}
  -3,                                     ! Humidity Indicating Conditions at Maximum Dry-Bulb {BasedOnField A3}
  99040,                                  ! Barometric Pressure {Pa}
  9.8,                                    ! Wind Speed {m/s}
  190,                                    ! Wind Direction {deg}
  0,                                      ! Sky Clearness
  0,                                      ! Rain Indicator
  0,                                      ! Snow Indicator
  21,                                     ! Day of Month
  1,                                      ! Month
  WinterDesignDay,                        ! Day Type
  0,                                      ! Daylight Saving Time Indicator
  Wetbulb,                                ! Humidity Indicating Type
  ,                                       ! Humidity Indicating Day Schedule Name
  DefaultMultipliers,                     ! Dry-Bulb Temperature Range Modifier Type
  ,                                       ! Dry-Bulb Temperature Range Modifier Schedule Name
  ASHRAEClearSky;                         ! Solar Model Indicator

OS:ComponentData,
  {191fa2ee-7547-4b73-a490-31d8d85bc736}, ! Handle
  Component Data 1,                       ! Name
  {62694c77-f2f9-4a95-8ac5-24cfb9b84eff}, ! UUID
  {fbb155f4-0fda-470a-9763-a24e84cfd133}, ! Version UUID
  1366308129,                             ! Creation Timestamp
  1366308129,                             ! Version Timestamp
  {b0f9ebdc-9c00-4c9a-b351-07bffb54fc3f}; ! Name of Object 1

