
OS:Version,
  {5d294b4f-1cec-4f0f-979c-decc5f27a7c9}, ! Handle
  0.9.3;                                  ! Version Identifier

OS:SizingPeriod:DesignDay,
  {a618298f-86e1-49c6-91f5-876452a49ee7}, ! Handle
  Oklahoma City Tinker Afb Ann Clg 1% Condns WB=>MDB, ! Name
  32.1,                                   ! Maximum Dry-Bulb Temperature {C}
  11,                                     ! Daily Dry-Bulb Temperature Range {deltaC}
  25.1,                                   ! Humidity Indicating Conditions at Maximum Dry-Bulb {BasedOnField A3}
  96796,                                  ! Barometric Pressure {Pa}
  4.8,                                    ! Wind Speed {m/s}
  180,                                    ! Wind Direction {deg}
  0,                                      ! Sky Clearness
  0,                                      ! Rain Indicator
  0,                                      ! Snow Indicator
  21,                                     ! Day of Month
  7,                                      ! Month
  SummerDesignDay,                        ! Day Type
  0,                                      ! Daylight Saving Time Indicator
  Wetbulb,                                ! Humidity Indicating Type
  ,                                       ! Humidity Indicating Day Schedule Name
  DefaultMultipliers,                     ! Dry-Bulb Temperature Range Modifier Type
  ,                                       ! Dry-Bulb Temperature Range Modifier Schedule Name
  ASHRAETau,                              ! Solar Model Indicator
  ,                                       ! Beam Solar Day Schedule Name
  ,                                       ! Diffuse Solar Day Schedule Name
  0.428,                                  ! ASHRAE Taub {dimensionless}
  2.209;                                  ! ASHRAE Taud {dimensionless}

