
OS:Version,
  {070918ec-1a80-49b0-ba7f-5181408e2c0e}, ! Handle
  0.9.3;                                  ! Version Identifier

OS:SizingPeriod:DesignDay,
  {ace87c40-9e56-47d1-b520-812cf98d775d}, ! Handle
  Montpelier Ap Ann Clg 2% Condns DP=>MDB, ! Name
  23.1,                                   ! Maximum Dry-Bulb Temperature {C}
  11.3,                                   ! Daily Dry-Bulb Temperature Range {deltaC}
  18.9,                                   ! Humidity Indicating Conditions at Maximum Dry-Bulb {BasedOnField A3}
  97272,                                  ! Barometric Pressure {Pa}
  3.8,                                    ! Wind Speed {m/s}
  220,                                    ! Wind Direction {deg}
  0,                                      ! Sky Clearness
  0,                                      ! Rain Indicator
  0,                                      ! Snow Indicator
  21,                                     ! Day of Month
  7,                                      ! Month
  SummerDesignDay,                        ! Day Type
  0,                                      ! Daylight Saving Time Indicator
  Dewpoint,                               ! Humidity Indicating Type
  ,                                       ! Humidity Indicating Day Schedule Name
  DefaultMultipliers,                     ! Dry-Bulb Temperature Range Modifier Type
  ,                                       ! Dry-Bulb Temperature Range Modifier Schedule Name
  ASHRAETau,                              ! Solar Model Indicator
  ,                                       ! Beam Solar Day Schedule Name
  ,                                       ! Diffuse Solar Day Schedule Name
  0.435,                                  ! ASHRAE Taub {dimensionless}
  2.069;                                  ! ASHRAE Taud {dimensionless}

OS:ComponentData,
  {99ea2440-a976-4619-8ad0-53dc078fec05}, ! Handle
  Component Data 1,                       ! Name
  {5fa4f9c7-7196-433c-84da-61e8c604346c}, ! UUID
  {d2d30857-8323-4b22-a5dd-28ea3ef1a484}, ! Version UUID
  1366311252,                             ! Creation Timestamp
  1366311252,                             ! Version Timestamp
  {ace87c40-9e56-47d1-b520-812cf98d775d}; ! Name of Object 1

