
OS:Version,
  {709dfed8-5ff5-4d66-b220-015c68c3739f}, ! Handle
  0.9.3;                                  ! Version Identifier

OS:SizingPeriod:DesignDay,
  {108f21c2-b964-40f8-adc9-f2b201ec229e}, ! Handle
  Tekamah  Asos Ann Clg 2% Condns Enth=>MDB, ! Name
  29.5,                                   ! Maximum Dry-Bulb Temperature {C}
  11.8,                                   ! Daily Dry-Bulb Temperature Range {deltaC}
  76400,                                  ! Humidity Indicating Conditions at Maximum Dry-Bulb {BasedOnField A3}
  97633,                                  ! Barometric Pressure {Pa}
  6.6,                                    ! Wind Speed {m/s}
  180,                                    ! Wind Direction {deg}
  0,                                      ! Sky Clearness
  0,                                      ! Rain Indicator
  0,                                      ! Snow Indicator
  21,                                     ! Day of Month
  7,                                      ! Month
  SummerDesignDay,                        ! Day Type
  0,                                      ! Daylight Saving Time Indicator
  Enthalpy,                               ! Humidity Indicating Type
  ,                                       ! Humidity Indicating Day Schedule Name
  DefaultMultipliers,                     ! Dry-Bulb Temperature Range Modifier Type
  ,                                       ! Dry-Bulb Temperature Range Modifier Schedule Name
  ASHRAETau,                              ! Solar Model Indicator
  ,                                       ! Beam Solar Day Schedule Name
  ,                                       ! Diffuse Solar Day Schedule Name
  0.417,                                  ! ASHRAE Taub {dimensionless}
  2.204;                                  ! ASHRAE Taud {dimensionless}

OS:ComponentData,
  {6d90fe9e-1d8d-4feb-8bf9-d3df4d90a0d3}, ! Handle
  Component Data 1,                       ! Name
  {74aa66be-21f3-44c3-adef-47b06d219545}, ! UUID
  {1796562c-dc3b-4130-8d44-809e1150cec6}, ! Version UUID
  1366309208,                             ! Creation Timestamp
  1366309208,                             ! Version Timestamp
  {108f21c2-b964-40f8-adc9-f2b201ec229e}; ! Name of Object 1

