
OS:Version,
  {776809bf-d64f-41ab-9bb9-4e5383079bf6}, ! Handle
  0.9.3;                                  ! Version Identifier

OS:SizingPeriod:DesignDay,
  {26b78ded-90da-48d4-bf0b-324cb79c1f39}, ! Handle
  Pitt Greenville Arp Ann Htg Wind 99% Condns WS=>MCDB, ! Name
  15.4,                                   ! Maximum Dry-Bulb Temperature {C}
  0,                                      ! Daily Dry-Bulb Temperature Range {deltaC}
  15.4,                                   ! Humidity Indicating Conditions at Maximum Dry-Bulb {BasedOnField A3}
  101229,                                 ! Barometric Pressure {Pa}
  9.1,                                    ! Wind Speed {m/s}
  0,                                      ! Wind Direction {deg}
  0,                                      ! Sky Clearness
  0,                                      ! Rain Indicator
  0,                                      ! Snow Indicator
  21,                                     ! Day of Month
  1,                                      ! Month
  WinterDesignDay,                        ! Day Type
  0,                                      ! Daylight Saving Time Indicator
  Wetbulb,                                ! Humidity Indicating Type
  ,                                       ! Humidity Indicating Day Schedule Name
  DefaultMultipliers,                     ! Dry-Bulb Temperature Range Modifier Type
  ,                                       ! Dry-Bulb Temperature Range Modifier Schedule Name
  ASHRAEClearSky;                         ! Solar Model Indicator

OS:ComponentData,
  {c4317999-e746-4924-8118-5b85a0eef1a6}, ! Handle
  Component Data 1,                       ! Name
  {3e3c9496-30f0-448b-9fa9-0a01faeffe54}, ! UUID
  {d23b6b08-9731-4f17-9d13-0f7c9bf94414}, ! Version UUID
  1366308960,                             ! Creation Timestamp
  1366308960,                             ! Version Timestamp
  {26b78ded-90da-48d4-bf0b-324cb79c1f39}; ! Name of Object 1

