
OS:Version,
  {a281159d-6419-4a6a-8aff-c41112028251}, ! Handle
  0.9.3;                                  ! Version Identifier

OS:SizingPeriod:DesignDay,
  {98242d9e-c8c3-42a9-8867-d36bc183736e}, ! Handle
  Saginaw Tri City Intl Ap Ann Hum_n 99% Condns DP=>MCDB, ! Name
  -14.9,                                  ! Maximum Dry-Bulb Temperature {C}
  0,                                      ! Daily Dry-Bulb Temperature Range {deltaC}
  -19.5,                                  ! Humidity Indicating Conditions at Maximum Dry-Bulb {BasedOnField A3}
  98934,                                  ! Barometric Pressure {Pa}
  4.2,                                    ! Wind Speed {m/s}
  260,                                    ! Wind Direction {deg}
  0,                                      ! Sky Clearness
  0,                                      ! Rain Indicator
  0,                                      ! Snow Indicator
  21,                                     ! Day of Month
  1,                                      ! Month
  WinterDesignDay,                        ! Day Type
  0,                                      ! Daylight Saving Time Indicator
  Dewpoint,                               ! Humidity Indicating Type
  ,                                       ! Humidity Indicating Day Schedule Name
  DefaultMultipliers,                     ! Dry-Bulb Temperature Range Modifier Type
  ,                                       ! Dry-Bulb Temperature Range Modifier Schedule Name
  ASHRAEClearSky;                         ! Solar Model Indicator

OS:ComponentData,
  {f6ef2fb4-809b-4315-9e90-aff2130b66ef}, ! Handle
  Component Data 1,                       ! Name
  {5108fec0-2a15-4bb9-9056-f39882beb801}, ! UUID
  {072c28da-e097-43a8-a589-e414403dba8b}, ! Version UUID
  1366308096,                             ! Creation Timestamp
  1366308096,                             ! Version Timestamp
  {98242d9e-c8c3-42a9-8867-d36bc183736e}; ! Name of Object 1

