
OS:Version,
  {42c8e6e7-080c-467b-8bc2-388da2148e0a}, ! Handle
  0.9.3;                                  ! Version Identifier

OS:SizingPeriod:DesignDay,
  {553f2b76-8195-48b3-b23e-feee1d0bdd8d}, ! Handle
  MISSOULA Ann Clg .4% Condns WB=>MDB,    ! Name
  29.4,                                   ! Maximum Dry-Bulb Temperature {C}
  17.5,                                   ! Daily Dry-Bulb Temperature Range {deltaC}
  18.6,                                   ! Humidity Indicating Conditions at Maximum Dry-Bulb {BasedOnField A3}
  90180,                                  ! Barometric Pressure {Pa}
  4.4,                                    ! Wind Speed {m/s}
  320,                                    ! Wind Direction {deg}
  0,                                      ! Sky Clearness
  0,                                      ! Rain Indicator
  0,                                      ! Snow Indicator
  21,                                     ! Day of Month
  7,                                      ! Month
  SummerDesignDay,                        ! Day Type
  0,                                      ! Daylight Saving Time Indicator
  Wetbulb,                                ! Humidity Indicating Type
  ,                                       ! Humidity Indicating Day Schedule Name
  DefaultMultipliers,                     ! Dry-Bulb Temperature Range Modifier Type
  ,                                       ! Dry-Bulb Temperature Range Modifier Schedule Name
  ASHRAETau,                              ! Solar Model Indicator
  ,                                       ! Beam Solar Day Schedule Name
  ,                                       ! Diffuse Solar Day Schedule Name
  0.357,                                  ! ASHRAE Taub {dimensionless}
  2.409;                                  ! ASHRAE Taud {dimensionless}

OS:ComponentData,
  {e404c87d-e18d-40c9-adee-3dc1bda537fb}, ! Handle
  Component Data 1,                       ! Name
  {947ad9c6-5f53-49ee-92b3-193c050748bf}, ! UUID
  {bb5112bc-6f33-49bb-9e6e-be74243150fb}, ! Version UUID
  1366308841,                             ! Creation Timestamp
  1366308841,                             ! Version Timestamp
  {553f2b76-8195-48b3-b23e-feee1d0bdd8d}; ! Name of Object 1

