
OS:Version,
  {1626f248-88ce-4dd2-bb8e-c894da386319}, ! Handle
  0.9.3;                                  ! Version Identifier

OS:SizingPeriod:DesignDay,
  {a2c21e4e-bc67-4c41-b8d2-2002c4c16a69}, ! Handle
  Nenana Municipal Ap Ann Clg 1% Condns DP=>MDB, ! Name
  18,                                     ! Maximum Dry-Bulb Temperature {C}
  11.3,                                   ! Daily Dry-Bulb Temperature Range {deltaC}
  13,                                     ! Humidity Indicating Conditions at Maximum Dry-Bulb {BasedOnField A3}
  100022,                                 ! Barometric Pressure {Pa}
  2.6,                                    ! Wind Speed {m/s}
  60,                                     ! Wind Direction {deg}
  0,                                      ! Sky Clearness
  0,                                      ! Rain Indicator
  0,                                      ! Snow Indicator
  21,                                     ! Day of Month
  7,                                      ! Month
  SummerDesignDay,                        ! Day Type
  0,                                      ! Daylight Saving Time Indicator
  Dewpoint,                               ! Humidity Indicating Type
  ,                                       ! Humidity Indicating Day Schedule Name
  DefaultMultipliers,                     ! Dry-Bulb Temperature Range Modifier Type
  ,                                       ! Dry-Bulb Temperature Range Modifier Schedule Name
  ASHRAETau,                              ! Solar Model Indicator
  ,                                       ! Beam Solar Day Schedule Name
  ,                                       ! Diffuse Solar Day Schedule Name
  0.38,                                   ! ASHRAE Taub {dimensionless}
  2.23;                                   ! ASHRAE Taud {dimensionless}

OS:ComponentData,
  {7f1422a3-a475-4e9c-8e39-e0d1ff22e0aa}, ! Handle
  Component Data 1,                       ! Name
  {34714ee2-5829-4b71-a38b-7ed75e48556b}, ! UUID
  {96bb0e2d-b448-457e-a2a6-a6039e308031}, ! Version UUID
  1366305441,                             ! Creation Timestamp
  1366305441,                             ! Version Timestamp
  {a2c21e4e-bc67-4c41-b8d2-2002c4c16a69}; ! Name of Object 1

