
OS:Version,
  {64b40edf-bb03-49e3-82fb-5bb2dc294fe1}, ! Handle
  0.9.3;                                  ! Version Identifier

OS:SizingPeriod:DesignDay,
  {e925ec08-660d-45b8-890d-1e383087c67a}, ! Handle
  Southern Illinois Ann Htg 99.6% Condns DB, ! Name
  -12.1,                                  ! Maximum Dry-Bulb Temperature {C}
  0,                                      ! Daily Dry-Bulb Temperature Range {deltaC}
  -12.1,                                  ! Humidity Indicating Conditions at Maximum Dry-Bulb {BasedOnField A3}
  99797,                                  ! Barometric Pressure {Pa}
  2.8,                                    ! Wind Speed {m/s}
  300,                                    ! Wind Direction {deg}
  0,                                      ! Sky Clearness
  0,                                      ! Rain Indicator
  0,                                      ! Snow Indicator
  21,                                     ! Day of Month
  1,                                      ! Month
  WinterDesignDay,                        ! Day Type
  0,                                      ! Daylight Saving Time Indicator
  Wetbulb,                                ! Humidity Indicating Type
  ,                                       ! Humidity Indicating Day Schedule Name
  DefaultMultipliers,                     ! Dry-Bulb Temperature Range Modifier Type
  ,                                       ! Dry-Bulb Temperature Range Modifier Schedule Name
  ASHRAEClearSky;                         ! Solar Model Indicator

OS:ComponentData,
  {54e5d6f1-811a-448c-8186-bb9d6cb0c7c2}, ! Handle
  Component Data 1,                       ! Name
  {613b84b2-f325-46e8-9e33-e724ec37f6b0}, ! UUID
  {23ce24bc-d669-4a93-8246-31fa278d3327}, ! Version UUID
  1366307330,                             ! Creation Timestamp
  1366307330,                             ! Version Timestamp
  {e925ec08-660d-45b8-890d-1e383087c67a}; ! Name of Object 1

