
OS:Version,
  {d97d03ec-fd96-41b8-a1be-1f18f6615fd0}, ! Handle
  0.9.3;                                  ! Version Identifier

OS:SizingPeriod:DesignDay,
  {aafb710e-b651-49ab-8b2d-7b2f320667b4}, ! Handle
  Whiting Field Naas Ann Clg .4% Condns DP=>MDB, ! Name
  29.4,                                   ! Maximum Dry-Bulb Temperature {C}
  10,                                     ! Daily Dry-Bulb Temperature Range {deltaC}
  25.8,                                   ! Humidity Indicating Conditions at Maximum Dry-Bulb {BasedOnField A3}
  100678,                                 ! Barometric Pressure {Pa}
  2.7,                                    ! Wind Speed {m/s}
  330,                                    ! Wind Direction {deg}
  0,                                      ! Sky Clearness
  0,                                      ! Rain Indicator
  0,                                      ! Snow Indicator
  21,                                     ! Day of Month
  7,                                      ! Month
  SummerDesignDay,                        ! Day Type
  0,                                      ! Daylight Saving Time Indicator
  Dewpoint,                               ! Humidity Indicating Type
  ,                                       ! Humidity Indicating Day Schedule Name
  DefaultMultipliers,                     ! Dry-Bulb Temperature Range Modifier Type
  ,                                       ! Dry-Bulb Temperature Range Modifier Schedule Name
  ASHRAETau,                              ! Solar Model Indicator
  ,                                       ! Beam Solar Day Schedule Name
  ,                                       ! Diffuse Solar Day Schedule Name
  0.535,                                  ! ASHRAE Taub {dimensionless}
  1.87;                                   ! ASHRAE Taud {dimensionless}

OS:ComponentData,
  {b2a005db-bfed-4c38-b1e8-290d215f39fb}, ! Handle
  Component Data 1,                       ! Name
  {6ec43a16-ad26-4b50-9fed-52b4db092e50}, ! UUID
  {78717e5c-b91f-4288-b577-d2792dd4b43d}, ! Version UUID
  1366306958,                             ! Creation Timestamp
  1366306958,                             ! Version Timestamp
  {aafb710e-b651-49ab-8b2d-7b2f320667b4}; ! Name of Object 1

