
OS:Version,
  {d9898605-0727-47bc-95b0-da57a20e64d5}, ! Handle
  0.9.3;                                  ! Version Identifier

OS:SizingPeriod:DesignDay,
  {2354429d-d738-4928-bdf4-a02b4e7d6b77}, ! Handle
  Milwaukee Mitchell Intl Ap Ann Clg 2% Condns DB=>MWB, ! Name
  28.7,                                   ! Maximum Dry-Bulb Temperature {C}
  8.7,                                    ! Daily Dry-Bulb Temperature Range {deltaC}
  21.5,                                   ! Humidity Indicating Conditions at Maximum Dry-Bulb {BasedOnField A3}
  98886,                                  ! Barometric Pressure {Pa}
  6.4,                                    ! Wind Speed {m/s}
  240,                                    ! Wind Direction {deg}
  0,                                      ! Sky Clearness
  0,                                      ! Rain Indicator
  0,                                      ! Snow Indicator
  21,                                     ! Day of Month
  7,                                      ! Month
  SummerDesignDay,                        ! Day Type
  0,                                      ! Daylight Saving Time Indicator
  Wetbulb,                                ! Humidity Indicating Type
  ,                                       ! Humidity Indicating Day Schedule Name
  DefaultMultipliers,                     ! Dry-Bulb Temperature Range Modifier Type
  ,                                       ! Dry-Bulb Temperature Range Modifier Schedule Name
  ASHRAETau,                              ! Solar Model Indicator
  ,                                       ! Beam Solar Day Schedule Name
  ,                                       ! Diffuse Solar Day Schedule Name
  0.452,                                  ! ASHRAE Taub {dimensionless}
  2.061;                                  ! ASHRAE Taud {dimensionless}

OS:ComponentData,
  {1178e8d9-119a-4e6f-b602-ceee78a14520}, ! Handle
  Component Data 1,                       ! Name
  {b7d4918a-1e38-4d03-8ac4-99398d4b0a8a}, ! UUID
  {b0b7a475-202e-4f9d-a4ba-8eb6a98667db}, ! Version UUID
  1366311557,                             ! Creation Timestamp
  1366311557,                             ! Version Timestamp
  {2354429d-d738-4928-bdf4-a02b4e7d6b77}; ! Name of Object 1

