
OS:Version,
  {2c6fed35-069d-4786-8be6-f1b5509086ea}, ! Handle
  0.9.3;                                  ! Version Identifier

OS:SizingPeriod:DesignDay,
  {184938ae-6d64-490b-b4b8-1c12f8fcc904}, ! Handle
  NEW_ORLEANS Ann Clg .4% Condns Enth=>MDB, ! Name
  32,                                     ! Maximum Dry-Bulb Temperature {C}
  6.6,                                    ! Daily Dry-Bulb Temperature Range {deltaC}
  86600,                                  ! Humidity Indicating Conditions at Maximum Dry-Bulb {BasedOnField A3}
  101289,                                 ! Barometric Pressure {Pa}
  3.8,                                    ! Wind Speed {m/s}
  320,                                    ! Wind Direction {deg}
  0,                                      ! Sky Clearness
  0,                                      ! Rain Indicator
  0,                                      ! Snow Indicator
  21,                                     ! Day of Month
  8,                                      ! Month
  SummerDesignDay,                        ! Day Type
  0,                                      ! Daylight Saving Time Indicator
  Enthalpy,                               ! Humidity Indicating Type
  ,                                       ! Humidity Indicating Day Schedule Name
  DefaultMultipliers,                     ! Dry-Bulb Temperature Range Modifier Type
  ,                                       ! Dry-Bulb Temperature Range Modifier Schedule Name
  ASHRAETau,                              ! Solar Model Indicator
  ,                                       ! Beam Solar Day Schedule Name
  ,                                       ! Diffuse Solar Day Schedule Name
  0.551,                                  ! ASHRAE Taub {dimensionless}
  1.829;                                  ! ASHRAE Taud {dimensionless}

OS:ComponentData,
  {4bd732c5-8d9e-4ddb-a47e-8302203b2c7b}, ! Handle
  Component Data 1,                       ! Name
  {24ab1220-958c-498d-b200-3a19aa5b5d57}, ! UUID
  {6d7ccd7e-0474-4d03-a2f3-1c3359332449}, ! Version UUID
  1366307748,                             ! Creation Timestamp
  1366307748,                             ! Version Timestamp
  {184938ae-6d64-490b-b4b8-1c12f8fcc904}; ! Name of Object 1

