
OS:Version,
  {eaa0959d-adbc-4c13-873c-bcc95c3820d6}, ! Handle
  0.9.3;                                  ! Version Identifier

OS:SizingPeriod:DesignDay,
  {c2eed215-444f-4410-83eb-9bcbbc5e031a}, ! Handle
  Spencer Ann Clg 1% Condns WB=>MDB,      ! Name
  29.5,                                   ! Maximum Dry-Bulb Temperature {C}
  11.3,                                   ! Daily Dry-Bulb Temperature Range {deltaC}
  24.4,                                   ! Humidity Indicating Conditions at Maximum Dry-Bulb {BasedOnField A3}
  96519,                                  ! Barometric Pressure {Pa}
  6.1,                                    ! Wind Speed {m/s}
  180,                                    ! Wind Direction {deg}
  0,                                      ! Sky Clearness
  0,                                      ! Rain Indicator
  0,                                      ! Snow Indicator
  21,                                     ! Day of Month
  7,                                      ! Month
  SummerDesignDay,                        ! Day Type
  0,                                      ! Daylight Saving Time Indicator
  Wetbulb,                                ! Humidity Indicating Type
  ,                                       ! Humidity Indicating Day Schedule Name
  DefaultMultipliers,                     ! Dry-Bulb Temperature Range Modifier Type
  ,                                       ! Dry-Bulb Temperature Range Modifier Schedule Name
  ASHRAETau,                              ! Solar Model Indicator
  ,                                       ! Beam Solar Day Schedule Name
  ,                                       ! Diffuse Solar Day Schedule Name
  0.401,                                  ! ASHRAE Taub {dimensionless}
  2.247;                                  ! ASHRAE Taud {dimensionless}

OS:ComponentData,
  {39dfc93d-11e3-4458-a5a7-c2966ae121fe}, ! Handle
  Component Data 1,                       ! Name
  {0b97d334-0568-42f0-abc4-9ae2b4576a32}, ! UUID
  {4acf30b6-970b-4a27-89c0-f1f015cb5e61}, ! Version UUID
  1366307242,                             ! Creation Timestamp
  1366307242,                             ! Version Timestamp
  {c2eed215-444f-4410-83eb-9bcbbc5e031a}; ! Name of Object 1

