
OS:Version,
  {0a0fe381-c7db-407e-b540-3b91b967b156}, ! Handle
  0.9.3;                                  ! Version Identifier

OS:SizingPeriod:DesignDay,
  {034d436b-8457-46af-8dd6-04cbb9bfd77e}, ! Handle
  Reno Ann Htg 99% Condns DB,             ! Name
  -8.3,                                   ! Maximum Dry-Bulb Temperature {C}
  0,                                      ! Daily Dry-Bulb Temperature Range {deltaC}
  -8.3,                                   ! Humidity Indicating Conditions at Maximum Dry-Bulb {BasedOnField A3}
  86219,                                  ! Barometric Pressure {Pa}
  1.2,                                    ! Wind Speed {m/s}
  180,                                    ! Wind Direction {deg}
  0,                                      ! Sky Clearness
  0,                                      ! Rain Indicator
  0,                                      ! Snow Indicator
  21,                                     ! Day of Month
  1,                                      ! Month
  WinterDesignDay,                        ! Day Type
  0,                                      ! Daylight Saving Time Indicator
  Wetbulb,                                ! Humidity Indicating Type
  ,                                       ! Humidity Indicating Day Schedule Name
  DefaultMultipliers,                     ! Dry-Bulb Temperature Range Modifier Type
  ,                                       ! Dry-Bulb Temperature Range Modifier Schedule Name
  ASHRAEClearSky;                         ! Solar Model Indicator

OS:ComponentData,
  {109e3a8c-ccb4-47cd-adb4-c86128233982}, ! Handle
  Component Data 1,                       ! Name
  {0d7e2833-5d53-4a4a-a3fa-06fcdfe371e8}, ! UUID
  {ced0d94b-1a80-4b0a-90ea-22526b51636b}, ! Version UUID
  1366309530,                             ! Creation Timestamp
  1366309530,                             ! Version Timestamp
  {034d436b-8457-46af-8dd6-04cbb9bfd77e}; ! Name of Object 1

