
OS:Version,
  {b2861766-d22e-45ee-b449-0e395e950831}, ! Handle
  0.9.3;                                  ! Version Identifier

OS:SizingPeriod:DesignDay,
  {35e83263-49da-4339-b098-766d0b13ecff}, ! Handle
  Palm Springs Intl Ann Htg Wind 99.6% Condns WS=>MCDB, ! Name
  18.7,                                   ! Maximum Dry-Bulb Temperature {C}
  0,                                      ! Daily Dry-Bulb Temperature Range {deltaC}
  18.7,                                   ! Humidity Indicating Conditions at Maximum Dry-Bulb {BasedOnField A3}
  99595,                                  ! Barometric Pressure {Pa}
  9.9,                                    ! Wind Speed {m/s}
  330,                                    ! Wind Direction {deg}
  0,                                      ! Sky Clearness
  0,                                      ! Rain Indicator
  0,                                      ! Snow Indicator
  21,                                     ! Day of Month
  12,                                     ! Month
  WinterDesignDay,                        ! Day Type
  0,                                      ! Daylight Saving Time Indicator
  Wetbulb,                                ! Humidity Indicating Type
  ,                                       ! Humidity Indicating Day Schedule Name
  DefaultMultipliers,                     ! Dry-Bulb Temperature Range Modifier Type
  ,                                       ! Dry-Bulb Temperature Range Modifier Schedule Name
  ASHRAEClearSky;                         ! Solar Model Indicator

OS:ComponentData,
  {a38bf716-83a6-49aa-b195-2358548465bc}, ! Handle
  Component Data 1,                       ! Name
  {5259f8e9-d370-494c-b545-7b29cb42365e}, ! UUID
  {e797b789-7e44-433c-829f-99b42f388540}, ! Version UUID
  1366306530,                             ! Creation Timestamp
  1366306530,                             ! Version Timestamp
  {35e83263-49da-4339-b098-766d0b13ecff}; ! Name of Object 1

