
OS:Version,
  {574056af-2e00-4963-baad-dd3610f73b3d}, ! Handle
  0.9.3;                                  ! Version Identifier

OS:SizingPeriod:DesignDay,
  {86727c13-6e64-40fb-8a52-5629ea5013a0}, ! Handle
  TONOPAH Ann Clg .4% Condns DB=>MWB,     ! Name
  35.2,                                   ! Maximum Dry-Bulb Temperature {C}
  18.2,                                   ! Daily Dry-Bulb Temperature Range {deltaC}
  15.6,                                   ! Humidity Indicating Conditions at Maximum Dry-Bulb {BasedOnField A3}
  82980,                                  ! Barometric Pressure {Pa}
  5.1,                                    ! Wind Speed {m/s}
  180,                                    ! Wind Direction {deg}
  0,                                      ! Sky Clearness
  0,                                      ! Rain Indicator
  0,                                      ! Snow Indicator
  21,                                     ! Day of Month
  7,                                      ! Month
  SummerDesignDay,                        ! Day Type
  0,                                      ! Daylight Saving Time Indicator
  Wetbulb,                                ! Humidity Indicating Type
  ,                                       ! Humidity Indicating Day Schedule Name
  DefaultMultipliers,                     ! Dry-Bulb Temperature Range Modifier Type
  ,                                       ! Dry-Bulb Temperature Range Modifier Schedule Name
  ASHRAETau,                              ! Solar Model Indicator
  ,                                       ! Beam Solar Day Schedule Name
  ,                                       ! Diffuse Solar Day Schedule Name
  0.483,                                  ! ASHRAE Taub {dimensionless}
  1.772;                                  ! ASHRAE Taud {dimensionless}

OS:ComponentData,
  {ca76c2ae-0044-4ac8-90a0-1e9f1101eade}, ! Handle
  Component Data 1,                       ! Name
  {2c4f6da7-b289-4ad2-8801-32e9fd80160a}, ! UUID
  {80ef724b-b0e2-4711-a1fb-0676ed34b8df}, ! Version UUID
  1366309545,                             ! Creation Timestamp
  1366309545,                             ! Version Timestamp
  {86727c13-6e64-40fb-8a52-5629ea5013a0}; ! Name of Object 1

