
OS:Version,
  {71326e28-418c-476a-a279-e0ce0fcd057b}, ! Handle
  0.9.3;                                  ! Version Identifier

OS:SizingPeriod:DesignDay,
  {ffcfade7-20a8-48f7-9b2c-4b887f43c2a9}, ! Handle
  Pellston Emmet County Ap Ann Clg 1% Condns DB=>MWB, ! Name
  28.9,                                   ! Maximum Dry-Bulb Temperature {C}
  13.1,                                   ! Daily Dry-Bulb Temperature Range {deltaC}
  20.9,                                   ! Humidity Indicating Conditions at Maximum Dry-Bulb {BasedOnField A3}
  98733,                                  ! Barometric Pressure {Pa}
  5.6,                                    ! Wind Speed {m/s}
  250,                                    ! Wind Direction {deg}
  0,                                      ! Sky Clearness
  0,                                      ! Rain Indicator
  0,                                      ! Snow Indicator
  21,                                     ! Day of Month
  7,                                      ! Month
  SummerDesignDay,                        ! Day Type
  0,                                      ! Daylight Saving Time Indicator
  Wetbulb,                                ! Humidity Indicating Type
  ,                                       ! Humidity Indicating Day Schedule Name
  DefaultMultipliers,                     ! Dry-Bulb Temperature Range Modifier Type
  ,                                       ! Dry-Bulb Temperature Range Modifier Schedule Name
  ASHRAETau,                              ! Solar Model Indicator
  ,                                       ! Beam Solar Day Schedule Name
  ,                                       ! Diffuse Solar Day Schedule Name
  0.414,                                  ! ASHRAE Taub {dimensionless}
  2.197;                                  ! ASHRAE Taud {dimensionless}

OS:ComponentData,
  {f29c1e68-854f-40eb-9b56-9d32d7643ec8}, ! Handle
  Component Data 1,                       ! Name
  {d3ebda4a-5165-412e-82af-a2e67f9a3b44}, ! UUID
  {a56c0586-87c8-4a54-9e3d-4a2a29355f1c}, ! Version UUID
  1366308088,                             ! Creation Timestamp
  1366308088,                             ! Version Timestamp
  {ffcfade7-20a8-48f7-9b2c-4b887f43c2a9}; ! Name of Object 1

