
OS:Version,
  {f6969743-77f4-41e3-a4cf-21a02114dfc3}, ! Handle
  0.9.3;                                  ! Version Identifier

OS:SizingPeriod:DesignDay,
  {5346fd4f-925f-4843-b63a-ad608eb2193a}, ! Handle
  Portland Intl Jetport Ann Htg 99% Condns DB, ! Name
  -15.4,                                  ! Maximum Dry-Bulb Temperature {C}
  0,                                      ! Daily Dry-Bulb Temperature Range {deltaC}
  -15.4,                                  ! Humidity Indicating Conditions at Maximum Dry-Bulb {BasedOnField A3}
  101157,                                 ! Barometric Pressure {Pa}
  3.2,                                    ! Wind Speed {m/s}
  270,                                    ! Wind Direction {deg}
  0,                                      ! Sky Clearness
  0,                                      ! Rain Indicator
  0,                                      ! Snow Indicator
  21,                                     ! Day of Month
  1,                                      ! Month
  WinterDesignDay,                        ! Day Type
  0,                                      ! Daylight Saving Time Indicator
  Wetbulb,                                ! Humidity Indicating Type
  ,                                       ! Humidity Indicating Day Schedule Name
  DefaultMultipliers,                     ! Dry-Bulb Temperature Range Modifier Type
  ,                                       ! Dry-Bulb Temperature Range Modifier Schedule Name
  ASHRAEClearSky;                         ! Solar Model Indicator

OS:ComponentData,
  {8731c2d3-9bde-40d7-bd78-8f5124199a2b}, ! Handle
  Component Data 1,                       ! Name
  {3fde7fd9-2c10-44f4-8a66-fbdc1ce48ac7}, ! UUID
  {2d509b98-2505-419f-8de3-50edb1f9ee32}, ! Version UUID
  1366307913,                             ! Creation Timestamp
  1366307913,                             ! Version Timestamp
  {5346fd4f-925f-4843-b63a-ad608eb2193a}; ! Name of Object 1

