
OS:Version,
  {9b8ccc64-994c-49bf-abbe-62137c4613b4}, ! Handle
  0.9.3;                                  ! Version Identifier

OS:SizingPeriod:DesignDay,
  {2118535e-2440-4c29-a985-cb2901586135}, ! Handle
  Phillips Price Co Ann Clg .4% Condns DP=>MDB, ! Name
  25.6,                                   ! Maximum Dry-Bulb Temperature {C}
  11.7,                                   ! Daily Dry-Bulb Temperature Range {deltaC}
  22.5,                                   ! Humidity Indicating Conditions at Maximum Dry-Bulb {BasedOnField A3}
  96046,                                  ! Barometric Pressure {Pa}
  4.1,                                    ! Wind Speed {m/s}
  200,                                    ! Wind Direction {deg}
  0,                                      ! Sky Clearness
  0,                                      ! Rain Indicator
  0,                                      ! Snow Indicator
  21,                                     ! Day of Month
  7,                                      ! Month
  SummerDesignDay,                        ! Day Type
  0,                                      ! Daylight Saving Time Indicator
  Dewpoint,                               ! Humidity Indicating Type
  ,                                       ! Humidity Indicating Day Schedule Name
  DefaultMultipliers,                     ! Dry-Bulb Temperature Range Modifier Type
  ,                                       ! Dry-Bulb Temperature Range Modifier Schedule Name
  ASHRAETau,                              ! Solar Model Indicator
  ,                                       ! Beam Solar Day Schedule Name
  ,                                       ! Diffuse Solar Day Schedule Name
  0.4,                                    ! ASHRAE Taub {dimensionless}
  2.208;                                  ! ASHRAE Taud {dimensionless}

OS:ComponentData,
  {52b27a83-a6bf-4651-81ab-4c913653f43d}, ! Handle
  Component Data 1,                       ! Name
  {c5c49c49-c197-4bd9-853d-b61c5f9d8cee}, ! UUID
  {880cdf42-0f09-4492-b424-bd93805ff041}, ! Version UUID
  1366311576,                             ! Creation Timestamp
  1366311576,                             ! Version Timestamp
  {2118535e-2440-4c29-a985-cb2901586135}; ! Name of Object 1

