
OS:Version,
  {7ef5936c-e80b-4286-93d3-7377a75d6ceb}, ! Handle
  0.9.3;                                  ! Version Identifier

OS:SizingPeriod:DesignDay,
  {c517773a-4823-44cc-af9b-47adc4ce3e3b}, ! Handle
  Winnemucca Ann Hum_n 99.6% Condns DP=>MCDB, ! Name
  -13.2,                                  ! Maximum Dry-Bulb Temperature {C}
  0,                                      ! Daily Dry-Bulb Temperature Range {deltaC}
  -19.3,                                  ! Humidity Indicating Conditions at Maximum Dry-Bulb {BasedOnField A3}
  86493,                                  ! Barometric Pressure {Pa}
  2,                                      ! Wind Speed {m/s}
  160,                                    ! Wind Direction {deg}
  0,                                      ! Sky Clearness
  0,                                      ! Rain Indicator
  0,                                      ! Snow Indicator
  21,                                     ! Day of Month
  12,                                     ! Month
  WinterDesignDay,                        ! Day Type
  0,                                      ! Daylight Saving Time Indicator
  Dewpoint,                               ! Humidity Indicating Type
  ,                                       ! Humidity Indicating Day Schedule Name
  DefaultMultipliers,                     ! Dry-Bulb Temperature Range Modifier Type
  ,                                       ! Dry-Bulb Temperature Range Modifier Schedule Name
  ASHRAEClearSky;                         ! Solar Model Indicator

OS:ComponentData,
  {e1396989-b3a2-4960-92c7-3716a3b2ca21}, ! Handle
  Component Data 1,                       ! Name
  {f3bee5fd-556f-4435-afb1-fe012b43180f}, ! UUID
  {559c7bea-3366-4103-b2e9-8f1c4af86d2e}, ! Version UUID
  1366309563,                             ! Creation Timestamp
  1366309563,                             ! Version Timestamp
  {c517773a-4823-44cc-af9b-47adc4ce3e3b}; ! Name of Object 1

