
OS:Version,
  {026a40d6-98e5-4bc3-b30c-1c126927a1a8}, ! Handle
  0.9.3;                                  ! Version Identifier

OS:SizingPeriod:DesignDay,
  {ead6e6d4-fcd0-4528-93c0-28469f25a95f}, ! Handle
  Orlando Intl Arpt Ann Htg 99.6% Condns DB, ! Name
  3.2,                                    ! Maximum Dry-Bulb Temperature {C}
  0,                                      ! Daily Dry-Bulb Temperature Range {deltaC}
  3.2,                                    ! Humidity Indicating Conditions at Maximum Dry-Bulb {BasedOnField A3}
  100977,                                 ! Barometric Pressure {Pa}
  3.4,                                    ! Wind Speed {m/s}
  340,                                    ! Wind Direction {deg}
  0,                                      ! Sky Clearness
  0,                                      ! Rain Indicator
  0,                                      ! Snow Indicator
  21,                                     ! Day of Month
  1,                                      ! Month
  WinterDesignDay,                        ! Day Type
  0,                                      ! Daylight Saving Time Indicator
  Wetbulb,                                ! Humidity Indicating Type
  ,                                       ! Humidity Indicating Day Schedule Name
  DefaultMultipliers,                     ! Dry-Bulb Temperature Range Modifier Type
  ,                                       ! Dry-Bulb Temperature Range Modifier Schedule Name
  ASHRAEClearSky;                         ! Solar Model Indicator

OS:ComponentData,
  {2e39f25d-1499-4626-8a19-1b544a1568eb}, ! Handle
  Component Data 1,                       ! Name
  {5b512514-4ad9-403a-9512-2e35274df36e}, ! UUID
  {1d347098-eb2b-49c3-ac76-f75c894c01e7}, ! Version UUID
  1366306894,                             ! Creation Timestamp
  1366306894,                             ! Version Timestamp
  {ead6e6d4-fcd0-4528-93c0-28469f25a95f}; ! Name of Object 1

