
OS:Version,
  {d9b87ada-16e9-437b-8eec-a98f1bd991d0}, ! Handle
  0.9.3;                                  ! Version Identifier

OS:SizingPeriod:DesignDay,
  {5452b7ce-6b6e-4d2f-a2a4-59cbd8322d91}, ! Handle
  Monroe Regional Ap Ann Clg .4% Condns WB=>MDB, ! Name
  32.8,                                   ! Maximum Dry-Bulb Temperature {C}
  10.6,                                   ! Daily Dry-Bulb Temperature Range {deltaC}
  27.3,                                   ! Humidity Indicating Conditions at Maximum Dry-Bulb {BasedOnField A3}
  100845,                                 ! Barometric Pressure {Pa}
  2.8,                                    ! Wind Speed {m/s}
  240,                                    ! Wind Direction {deg}
  0,                                      ! Sky Clearness
  0,                                      ! Rain Indicator
  0,                                      ! Snow Indicator
  21,                                     ! Day of Month
  7,                                      ! Month
  SummerDesignDay,                        ! Day Type
  0,                                      ! Daylight Saving Time Indicator
  Wetbulb,                                ! Humidity Indicating Type
  ,                                       ! Humidity Indicating Day Schedule Name
  DefaultMultipliers,                     ! Dry-Bulb Temperature Range Modifier Type
  ,                                       ! Dry-Bulb Temperature Range Modifier Schedule Name
  ASHRAETau,                              ! Solar Model Indicator
  ,                                       ! Beam Solar Day Schedule Name
  ,                                       ! Diffuse Solar Day Schedule Name
  0.512,                                  ! ASHRAE Taub {dimensionless}
  1.931;                                  ! ASHRAE Taud {dimensionless}

OS:ComponentData,
  {06cb2c6b-c72f-4ed1-a40c-55876a682bab}, ! Handle
  Component Data 1,                       ! Name
  {92f0d5f7-8aa0-4362-a33a-43d3597aaea5}, ! UUID
  {efc315a2-64d1-45f8-a3f7-93bc145a0ac5}, ! Version UUID
  1366307735,                             ! Creation Timestamp
  1366307735,                             ! Version Timestamp
  {5452b7ce-6b6e-4d2f-a2a4-59cbd8322d91}; ! Name of Object 1

