
OS:Version,
  {292aaf11-0389-4e97-a1b2-be243e9b49a3}, ! Handle
  0.9.3;                                  ! Version Identifier

OS:SizingPeriod:DesignDay,
  {2b8ef111-f035-4131-8d2b-e74cb6ac985a}, ! Handle
  Olathe Johnson Co Ann Htg Wind 99% Condns WS=>MCDB, ! Name
  5.3,                                    ! Maximum Dry-Bulb Temperature {C}
  0,                                      ! Daily Dry-Bulb Temperature Range {deltaC}
  5.3,                                    ! Humidity Indicating Conditions at Maximum Dry-Bulb {BasedOnField A3}
  97376,                                  ! Barometric Pressure {Pa}
  10,                                     ! Wind Speed {m/s}
  320,                                    ! Wind Direction {deg}
  0,                                      ! Sky Clearness
  0,                                      ! Rain Indicator
  0,                                      ! Snow Indicator
  21,                                     ! Day of Month
  1,                                      ! Month
  WinterDesignDay,                        ! Day Type
  0,                                      ! Daylight Saving Time Indicator
  Wetbulb,                                ! Humidity Indicating Type
  ,                                       ! Humidity Indicating Day Schedule Name
  DefaultMultipliers,                     ! Dry-Bulb Temperature Range Modifier Type
  ,                                       ! Dry-Bulb Temperature Range Modifier Schedule Name
  ASHRAEClearSky;                         ! Solar Model Indicator

OS:ComponentData,
  {55956069-1e69-4c88-9d2c-9a7bbd50ddbf}, ! Handle
  Component Data 1,                       ! Name
  {457ebd44-982c-457b-8c53-a3c8c007ce4c}, ! UUID
  {a993e75f-1e7f-433f-8c5d-e048ed2f8fdd}, ! Version UUID
  1366307566,                             ! Creation Timestamp
  1366307566,                             ! Version Timestamp
  {2b8ef111-f035-4131-8d2b-e74cb6ac985a}; ! Name of Object 1

