
OS:Version,
  {9453d15e-22ca-491f-805f-e1f3a0f9f037}, ! Handle
  0.9.3;                                  ! Version Identifier

OS:SizingPeriod:DesignDay,
  {f456b458-887c-48a6-8831-c78dda81dbff}, ! Handle
  Wilkes Barre Scranton Intl Ap Ann Clg 1% Condns DP=>MDB, ! Name
  25.3,                                   ! Maximum Dry-Bulb Temperature {C}
  10.8,                                   ! Daily Dry-Bulb Temperature Range {deltaC}
  21.5,                                   ! Humidity Indicating Conditions at Maximum Dry-Bulb {BasedOnField A3}
  97959,                                  ! Barometric Pressure {Pa}
  4.5,                                    ! Wind Speed {m/s}
  240,                                    ! Wind Direction {deg}
  0,                                      ! Sky Clearness
  0,                                      ! Rain Indicator
  0,                                      ! Snow Indicator
  21,                                     ! Day of Month
  7,                                      ! Month
  SummerDesignDay,                        ! Day Type
  0,                                      ! Daylight Saving Time Indicator
  Dewpoint,                               ! Humidity Indicating Type
  ,                                       ! Humidity Indicating Day Schedule Name
  DefaultMultipliers,                     ! Dry-Bulb Temperature Range Modifier Type
  ,                                       ! Dry-Bulb Temperature Range Modifier Schedule Name
  ASHRAETau,                              ! Solar Model Indicator
  ,                                       ! Beam Solar Day Schedule Name
  ,                                       ! Diffuse Solar Day Schedule Name
  0.477,                                  ! ASHRAE Taub {dimensionless}
  1.945;                                  ! ASHRAE Taud {dimensionless}

OS:ComponentData,
  {e91dbce5-a350-4bb7-81b9-8d28350067e3}, ! Handle
  Component Data 1,                       ! Name
  {7a919469-0500-498c-868d-7097623c9f2e}, ! UUID
  {f8f0038d-b176-4eff-b2c5-83602c434383}, ! Version UUID
  1366310267,                             ! Creation Timestamp
  1366310267,                             ! Version Timestamp
  {f456b458-887c-48a6-8831-c78dda81dbff}; ! Name of Object 1

