
OS:Version,
  {6efa389e-f221-4d8f-b2ae-b3713f4e9ffc}, ! Handle
  0.9.3;                                  ! Version Identifier

OS:SizingPeriod:DesignDay,
  {4af76f98-dd29-4e25-8742-b96a40cdab94}, ! Handle
  Whidbey Island Nas Ann Clg 1% Condns DB=>MWB, ! Name
  21,                                     ! Maximum Dry-Bulb Temperature {C}
  7.8,                                    ! Daily Dry-Bulb Temperature Range {deltaC}
  15.8,                                   ! Humidity Indicating Conditions at Maximum Dry-Bulb {BasedOnField A3}
  101205,                                 ! Barometric Pressure {Pa}
  3,                                      ! Wind Speed {m/s}
  260,                                    ! Wind Direction {deg}
  0,                                      ! Sky Clearness
  0,                                      ! Rain Indicator
  0,                                      ! Snow Indicator
  21,                                     ! Day of Month
  8,                                      ! Month
  SummerDesignDay,                        ! Day Type
  0,                                      ! Daylight Saving Time Indicator
  Wetbulb,                                ! Humidity Indicating Type
  ,                                       ! Humidity Indicating Day Schedule Name
  DefaultMultipliers,                     ! Dry-Bulb Temperature Range Modifier Type
  ,                                       ! Dry-Bulb Temperature Range Modifier Schedule Name
  ASHRAETau,                              ! Solar Model Indicator
  ,                                       ! Beam Solar Day Schedule Name
  ,                                       ! Diffuse Solar Day Schedule Name
  0.356,                                  ! ASHRAE Taub {dimensionless}
  2.524;                                  ! ASHRAE Taud {dimensionless}

OS:ComponentData,
  {26251cbc-8ea4-4913-99ee-3de28df3a156}, ! Handle
  Component Data 1,                       ! Name
  {e38f4f0c-47cf-4880-ad90-e38a260cd8ae}, ! UUID
  {c5cfe2e9-351a-4a57-8f4e-45cf055a1991}, ! Version UUID
  1366311436,                             ! Creation Timestamp
  1366311436,                             ! Version Timestamp
  {4af76f98-dd29-4e25-8742-b96a40cdab94}; ! Name of Object 1

