
OS:Version,
  {895dc97e-4c34-4e08-baaa-5bb341152a73}, ! Handle
  0.9.3;                                  ! Version Identifier

OS:SizingPeriod:DesignDay,
  {316317c1-5626-44eb-9f3a-fbd684e73c52}, ! Handle
  Sidney Richland Ann Clg 2% Condns DB=>MWB, ! Name
  30.1,                                   ! Maximum Dry-Bulb Temperature {C}
  14,                                     ! Daily Dry-Bulb Temperature Range {deltaC}
  18.5,                                   ! Humidity Indicating Conditions at Maximum Dry-Bulb {BasedOnField A3}
  94265,                                  ! Barometric Pressure {Pa}
  4.5,                                    ! Wind Speed {m/s}
  160,                                    ! Wind Direction {deg}
  0,                                      ! Sky Clearness
  0,                                      ! Rain Indicator
  0,                                      ! Snow Indicator
  21,                                     ! Day of Month
  7,                                      ! Month
  SummerDesignDay,                        ! Day Type
  0,                                      ! Daylight Saving Time Indicator
  Wetbulb,                                ! Humidity Indicating Type
  ,                                       ! Humidity Indicating Day Schedule Name
  DefaultMultipliers,                     ! Dry-Bulb Temperature Range Modifier Type
  ,                                       ! Dry-Bulb Temperature Range Modifier Schedule Name
  ASHRAETau,                              ! Solar Model Indicator
  ,                                       ! Beam Solar Day Schedule Name
  ,                                       ! Diffuse Solar Day Schedule Name
  0.396,                                  ! ASHRAE Taub {dimensionless}
  2.189;                                  ! ASHRAE Taud {dimensionless}

OS:ComponentData,
  {0d80a8dc-1f3c-43ef-bb37-35e5e4ca9e15}, ! Handle
  Component Data 1,                       ! Name
  {ab083f68-751a-4aa3-b719-f59b2685f3bc}, ! UUID
  {f80390f5-6d64-4792-9175-7cec293174c2}, ! Version UUID
  1366308854,                             ! Creation Timestamp
  1366308854,                             ! Version Timestamp
  {316317c1-5626-44eb-9f3a-fbd684e73c52}; ! Name of Object 1

