
OS:Version,
  {02f65d3c-c3ef-48b9-938a-cb7d901241c7}, ! Handle
  0.9.3;                                  ! Version Identifier

OS:SizingPeriod:DesignDay,
  {1d55ff56-0d12-421b-9d00-b9d12512ca2d}, ! Handle
  Watertown Municipal Ap Ann Hum_n 99.6% Condns DP=>MCDB, ! Name
  -26.6,                                  ! Maximum Dry-Bulb Temperature {C}
  0,                                      ! Daily Dry-Bulb Temperature Range {deltaC}
  -31.5,                                  ! Humidity Indicating Conditions at Maximum Dry-Bulb {BasedOnField A3}
  95095,                                  ! Barometric Pressure {Pa}
  3.7,                                    ! Wind Speed {m/s}
  320,                                    ! Wind Direction {deg}
  0,                                      ! Sky Clearness
  0,                                      ! Rain Indicator
  0,                                      ! Snow Indicator
  21,                                     ! Day of Month
  1,                                      ! Month
  WinterDesignDay,                        ! Day Type
  0,                                      ! Daylight Saving Time Indicator
  Dewpoint,                               ! Humidity Indicating Type
  ,                                       ! Humidity Indicating Day Schedule Name
  DefaultMultipliers,                     ! Dry-Bulb Temperature Range Modifier Type
  ,                                       ! Dry-Bulb Temperature Range Modifier Schedule Name
  ASHRAEClearSky;                         ! Solar Model Indicator

OS:ComponentData,
  {580592bb-a012-45ae-b59d-42a1fb66e67b}, ! Handle
  Component Data 1,                       ! Name
  {9d1d05b5-e3a3-4492-b5d0-2560594aacd7}, ! UUID
  {364a5d7d-26c9-4303-a884-0558e7faefbe}, ! Version UUID
  1366310467,                             ! Creation Timestamp
  1366310467,                             ! Version Timestamp
  {1d55ff56-0d12-421b-9d00-b9d12512ca2d}; ! Name of Object 1

