
OS:Version,
  {2e41971d-ce7e-4579-8e2e-27b73f14b7cd}, ! Handle
  0.9.3;                                  ! Version Identifier

OS:SizingPeriod:DesignDay,
  {d30a2413-a48b-41ee-bb8d-424828b827b3}, ! Handle
  QUILLAYUTE Ann Htg 99.6% Condns DB,     ! Name
  -4.6,                                   ! Maximum Dry-Bulb Temperature {C}
  0,                                      ! Daily Dry-Bulb Temperature Range {deltaC}
  -4.6,                                   ! Humidity Indicating Conditions at Maximum Dry-Bulb {BasedOnField A3}
  100666,                                 ! Barometric Pressure {Pa}
  2.3,                                    ! Wind Speed {m/s}
  50,                                     ! Wind Direction {deg}
  0,                                      ! Sky Clearness
  0,                                      ! Rain Indicator
  0,                                      ! Snow Indicator
  21,                                     ! Day of Month
  12,                                     ! Month
  WinterDesignDay,                        ! Day Type
  0,                                      ! Daylight Saving Time Indicator
  Wetbulb,                                ! Humidity Indicating Type
  ,                                       ! Humidity Indicating Day Schedule Name
  DefaultMultipliers,                     ! Dry-Bulb Temperature Range Modifier Type
  ,                                       ! Dry-Bulb Temperature Range Modifier Schedule Name
  ASHRAEClearSky;                         ! Solar Model Indicator

OS:ComponentData,
  {8469ea7a-6b7b-4be1-a97f-9b964b726e4f}, ! Handle
  Component Data 1,                       ! Name
  {3f10c29f-21f7-4d5e-8d1b-e45fb47ed855}, ! UUID
  {f77830fe-a091-4fce-8b60-cfe2d126d562}, ! Version UUID
  1366311335,                             ! Creation Timestamp
  1366311335,                             ! Version Timestamp
  {d30a2413-a48b-41ee-bb8d-424828b827b3}; ! Name of Object 1

