
OS:Version,
  {d48b1a17-dfd9-4811-b140-bc98cf19652b}, ! Handle
  0.9.3;                                  ! Version Identifier

OS:SizingPeriod:DesignDay,
  {f5efc3f9-737e-4fde-8e0d-4fbdc148c34f}, ! Handle
  Rochester Ann Clg .4% Condns DB=>MWB,   ! Name
  31.3,                                   ! Maximum Dry-Bulb Temperature {C}
  10.7,                                   ! Daily Dry-Bulb Temperature Range {deltaC}
  22.9,                                   ! Humidity Indicating Conditions at Maximum Dry-Bulb {BasedOnField A3}
  99311,                                  ! Barometric Pressure {Pa}
  5.2,                                    ! Wind Speed {m/s}
  240,                                    ! Wind Direction {deg}
  0,                                      ! Sky Clearness
  0,                                      ! Rain Indicator
  0,                                      ! Snow Indicator
  21,                                     ! Day of Month
  7,                                      ! Month
  SummerDesignDay,                        ! Day Type
  0,                                      ! Daylight Saving Time Indicator
  Wetbulb,                                ! Humidity Indicating Type
  ,                                       ! Humidity Indicating Day Schedule Name
  DefaultMultipliers,                     ! Dry-Bulb Temperature Range Modifier Type
  ,                                       ! Dry-Bulb Temperature Range Modifier Schedule Name
  ASHRAETau,                              ! Solar Model Indicator
  ,                                       ! Beam Solar Day Schedule Name
  ,                                       ! Diffuse Solar Day Schedule Name
  0.463,                                  ! ASHRAE Taub {dimensionless}
  2.001;                                  ! ASHRAE Taud {dimensionless}

OS:ComponentData,
  {80a7ad8f-98cb-4e22-b853-f55a533c0dc9}, ! Handle
  Component Data 1,                       ! Name
  {74ede251-1b08-44ff-bfce-3a1bb24b96d5}, ! UUID
  {3120212d-ef4d-4bba-9ef7-86678714a90f}, ! Version UUID
  1366309713,                             ! Creation Timestamp
  1366309713,                             ! Version Timestamp
  {f5efc3f9-737e-4fde-8e0d-4fbdc148c34f}; ! Name of Object 1

