
OS:Version,
  {e826ff30-ac05-4793-be07-b288497f145e}, ! Handle
  0.9.3;                                  ! Version Identifier

OS:SizingPeriod:DesignDay,
  {2426323e-9759-41bf-aaea-b0c5777e182f}, ! Handle
  Tyndall Afb Ann Clg 1% Condns DB=>MWB,  ! Name
  32.3,                                   ! Maximum Dry-Bulb Temperature {C}
  7,                                      ! Daily Dry-Bulb Temperature Range {deltaC}
  25.8,                                   ! Humidity Indicating Conditions at Maximum Dry-Bulb {BasedOnField A3}
  101241,                                 ! Barometric Pressure {Pa}
  3.9,                                    ! Wind Speed {m/s}
  240,                                    ! Wind Direction {deg}
  0,                                      ! Sky Clearness
  0,                                      ! Rain Indicator
  0,                                      ! Snow Indicator
  21,                                     ! Day of Month
  7,                                      ! Month
  SummerDesignDay,                        ! Day Type
  0,                                      ! Daylight Saving Time Indicator
  Wetbulb,                                ! Humidity Indicating Type
  ,                                       ! Humidity Indicating Day Schedule Name
  DefaultMultipliers,                     ! Dry-Bulb Temperature Range Modifier Type
  ,                                       ! Dry-Bulb Temperature Range Modifier Schedule Name
  ASHRAETau,                              ! Solar Model Indicator
  ,                                       ! Beam Solar Day Schedule Name
  ,                                       ! Diffuse Solar Day Schedule Name
  0.519,                                  ! ASHRAE Taub {dimensionless}
  1.937;                                  ! ASHRAE Taud {dimensionless}

OS:ComponentData,
  {f32592ce-502c-402b-8579-a1b9c3921823}, ! Handle
  Component Data 1,                       ! Name
  {6acc4a9c-ba6a-4b35-b45e-d8989595f7b5}, ! UUID
  {44698d44-54a1-441b-b2ba-615c39578c65}, ! Version UUID
  1366306939,                             ! Creation Timestamp
  1366306939,                             ! Version Timestamp
  {2426323e-9759-41bf-aaea-b0c5777e182f}; ! Name of Object 1

