
OS:Version,
  {805a54e7-6482-4603-b974-9e6d2d82ee32}, ! Handle
  0.9.3;                                  ! Version Identifier

OS:SizingPeriod:DesignDay,
  {fa8dd632-3358-4c67-8247-f3d49a6811b6}, ! Handle
  Mason City Ann Clg .4% Condns DP=>MDB,  ! Name
  28.7,                                   ! Maximum Dry-Bulb Temperature {C}
  11.5,                                   ! Daily Dry-Bulb Temperature Range {deltaC}
  24.1,                                   ! Humidity Indicating Conditions at Maximum Dry-Bulb {BasedOnField A3}
  96958,                                  ! Barometric Pressure {Pa}
  6.4,                                    ! Wind Speed {m/s}
  200,                                    ! Wind Direction {deg}
  0,                                      ! Sky Clearness
  0,                                      ! Rain Indicator
  0,                                      ! Snow Indicator
  21,                                     ! Day of Month
  7,                                      ! Month
  SummerDesignDay,                        ! Day Type
  0,                                      ! Daylight Saving Time Indicator
  Dewpoint,                               ! Humidity Indicating Type
  ,                                       ! Humidity Indicating Day Schedule Name
  DefaultMultipliers,                     ! Dry-Bulb Temperature Range Modifier Type
  ,                                       ! Dry-Bulb Temperature Range Modifier Schedule Name
  ASHRAETau,                              ! Solar Model Indicator
  ,                                       ! Beam Solar Day Schedule Name
  ,                                       ! Diffuse Solar Day Schedule Name
  0.409,                                  ! ASHRAE Taub {dimensionless}
  2.21;                                   ! ASHRAE Taud {dimensionless}

OS:ComponentData,
  {84bf874e-ae0f-4652-99a0-d46b934b14d7}, ! Handle
  Component Data 1,                       ! Name
  {a6d479bc-fbea-4e79-8897-130ae6c5ffa1}, ! UUID
  {0469200b-a653-4ad4-a383-2897967b6208}, ! Version UUID
  1366307214,                             ! Creation Timestamp
  1366307214,                             ! Version Timestamp
  {fa8dd632-3358-4c67-8247-f3d49a6811b6}; ! Name of Object 1

