
OS:Version,
  {74ec3069-016b-47c2-bca0-8c880ec7044d}, ! Handle
  0.9.3;                                  ! Version Identifier

OS:SizingPeriod:DesignDay,
  {55889600-202a-41b6-a51e-d96f809217d0}, ! Handle
  Mora Muni  Awos Ann Clg .4% Condns WB=>MDB, ! Name
  28.9,                                   ! Maximum Dry-Bulb Temperature {C}
  12,                                     ! Daily Dry-Bulb Temperature Range {deltaC}
  24.1,                                   ! Humidity Indicating Conditions at Maximum Dry-Bulb {BasedOnField A3}
  97668,                                  ! Barometric Pressure {Pa}
  4.1,                                    ! Wind Speed {m/s}
  190,                                    ! Wind Direction {deg}
  0,                                      ! Sky Clearness
  0,                                      ! Rain Indicator
  0,                                      ! Snow Indicator
  21,                                     ! Day of Month
  7,                                      ! Month
  SummerDesignDay,                        ! Day Type
  0,                                      ! Daylight Saving Time Indicator
  Wetbulb,                                ! Humidity Indicating Type
  ,                                       ! Humidity Indicating Day Schedule Name
  DefaultMultipliers,                     ! Dry-Bulb Temperature Range Modifier Type
  ,                                       ! Dry-Bulb Temperature Range Modifier Schedule Name
  ASHRAETau,                              ! Solar Model Indicator
  ,                                       ! Beam Solar Day Schedule Name
  ,                                       ! Diffuse Solar Day Schedule Name
  0.405,                                  ! ASHRAE Taub {dimensionless}
  2.202;                                  ! ASHRAE Taud {dimensionless}

OS:ComponentData,
  {4e7d8eac-2ef4-41d2-85ee-9bb983dbbb6a}, ! Handle
  Component Data 1,                       ! Name
  {32dbf321-ca27-49ae-bc55-c7a9aabcc668}, ! UUID
  {3d30bf0b-7740-48eb-9676-d7ce4f1948c9}, ! Version UUID
  1366308330,                             ! Creation Timestamp
  1366308330,                             ! Version Timestamp
  {55889600-202a-41b6-a51e-d96f809217d0}; ! Name of Object 1

