
OS:Version,
  {4b377f47-1c80-4011-a573-a4bc101bfd1e}, ! Handle
  0.9.3;                                  ! Version Identifier

OS:SizingPeriod:DesignDay,
  {559013cf-3d3d-4112-b5ca-373aaa1f232e}, ! Handle
  Pensacola Regional Ap Ann Clg 1% Condns WB=>MDB, ! Name
  30.7,                                   ! Maximum Dry-Bulb Temperature {C}
  8.2,                                    ! Daily Dry-Bulb Temperature Range {deltaC}
  26.7,                                   ! Humidity Indicating Conditions at Maximum Dry-Bulb {BasedOnField A3}
  100917,                                 ! Barometric Pressure {Pa}
  4,                                      ! Wind Speed {m/s}
  180,                                    ! Wind Direction {deg}
  0,                                      ! Sky Clearness
  0,                                      ! Rain Indicator
  0,                                      ! Snow Indicator
  21,                                     ! Day of Month
  7,                                      ! Month
  SummerDesignDay,                        ! Day Type
  0,                                      ! Daylight Saving Time Indicator
  Wetbulb,                                ! Humidity Indicating Type
  ,                                       ! Humidity Indicating Day Schedule Name
  DefaultMultipliers,                     ! Dry-Bulb Temperature Range Modifier Type
  ,                                       ! Dry-Bulb Temperature Range Modifier Schedule Name
  ASHRAETau,                              ! Solar Model Indicator
  ,                                       ! Beam Solar Day Schedule Name
  ,                                       ! Diffuse Solar Day Schedule Name
  0.531,                                  ! ASHRAE Taub {dimensionless}
  1.89;                                   ! ASHRAE Taud {dimensionless}

OS:ComponentData,
  {b832795f-0fe5-4124-a31a-722bd6ef858b}, ! Handle
  Component Data 1,                       ! Name
  {41150233-aa3f-48a4-9f2d-131bd24d54fe}, ! UUID
  {820f87c0-6aa3-4cfe-bfe3-5d6e5cba2167}, ! Version UUID
  1366306905,                             ! Creation Timestamp
  1366306905,                             ! Version Timestamp
  {559013cf-3d3d-4112-b5ca-373aaa1f232e}; ! Name of Object 1

