
OS:Version,
  {a014c1b4-601b-4528-bc5b-67d399a3b6d3}, ! Handle
  0.9.3;                                  ! Version Identifier

OS:SizingPeriod:DesignDay,
  {35d89e30-ea6f-49cd-87f6-478e91189857}, ! Handle
  Sitka Japonski Ap Ann Clg 2% Condns DP=>MDB, ! Name
  15.1,                                   ! Maximum Dry-Bulb Temperature {C}
  4.8,                                    ! Daily Dry-Bulb Temperature Range {deltaC}
  13.4,                                   ! Humidity Indicating Conditions at Maximum Dry-Bulb {BasedOnField A3}
  101277,                                 ! Barometric Pressure {Pa}
  3.4,                                    ! Wind Speed {m/s}
  220,                                    ! Wind Direction {deg}
  0,                                      ! Sky Clearness
  0,                                      ! Rain Indicator
  0,                                      ! Snow Indicator
  21,                                     ! Day of Month
  8,                                      ! Month
  SummerDesignDay,                        ! Day Type
  0,                                      ! Daylight Saving Time Indicator
  Dewpoint,                               ! Humidity Indicating Type
  ,                                       ! Humidity Indicating Day Schedule Name
  DefaultMultipliers,                     ! Dry-Bulb Temperature Range Modifier Type
  ,                                       ! Dry-Bulb Temperature Range Modifier Schedule Name
  ASHRAETau,                              ! Solar Model Indicator
  ,                                       ! Beam Solar Day Schedule Name
  ,                                       ! Diffuse Solar Day Schedule Name
  0.368,                                  ! ASHRAE Taub {dimensionless}
  2.385;                                  ! ASHRAE Taud {dimensionless}

OS:ComponentData,
  {99c6001f-f62c-4867-aa8b-44709e4c5fce}, ! Handle
  Component Data 1,                       ! Name
  {9a3f177a-c44f-4eb3-99dc-3ced3eae4257}, ! UUID
  {e7d6598f-0a7f-4deb-977d-adad467d71b8}, ! Version UUID
  1366305554,                             ! Creation Timestamp
  1366305554,                             ! Version Timestamp
  {35d89e30-ea6f-49cd-87f6-478e91189857}; ! Name of Object 1

