
OS:Version,
  {0a823b0f-d4ae-4146-a073-e510bd23bc70}, ! Handle
  0.9.3;                                  ! Version Identifier

OS:SizingPeriod:DesignDay,
  {fa65f950-cf96-43c6-96be-768c8fb713ac}, ! Handle
  Oxnard/Point Mugu NF Ann Clg 1% Condns DP=>MDB, ! Name
  22.4,                                   ! Maximum Dry-Bulb Temperature {C}
  7.8,                                    ! Daily Dry-Bulb Temperature Range {deltaC}
  18.9,                                   ! Humidity Indicating Conditions at Maximum Dry-Bulb {BasedOnField A3}
  101289,                                 ! Barometric Pressure {Pa}
  5.2,                                    ! Wind Speed {m/s}
  50,                                     ! Wind Direction {deg}
  0,                                      ! Sky Clearness
  0,                                      ! Rain Indicator
  0,                                      ! Snow Indicator
  21,                                     ! Day of Month
  8,                                      ! Month
  SummerDesignDay,                        ! Day Type
  0,                                      ! Daylight Saving Time Indicator
  Dewpoint,                               ! Humidity Indicating Type
  ,                                       ! Humidity Indicating Day Schedule Name
  DefaultMultipliers,                     ! Dry-Bulb Temperature Range Modifier Type
  ,                                       ! Dry-Bulb Temperature Range Modifier Schedule Name
  ASHRAETau,                              ! Solar Model Indicator
  ,                                       ! Beam Solar Day Schedule Name
  ,                                       ! Diffuse Solar Day Schedule Name
  0.425,                                  ! ASHRAE Taub {dimensionless}
  2.2;                                    ! ASHRAE Taud {dimensionless}

