
OS:Version,
  {99d5212a-61e9-41c2-ab01-4f9aeb7de438}, ! Handle
  0.9.3;                                  ! Version Identifier

OS:SizingPeriod:DesignDay,
  {2e2704df-7e95-4014-8ca0-686dbff028f3}, ! Handle
  Teterboro Airport Ann Clg 2% Condns DP=>MDB, ! Name
  26.4,                                   ! Maximum Dry-Bulb Temperature {C}
  9.9,                                    ! Daily Dry-Bulb Temperature Range {deltaC}
  22.4,                                   ! Humidity Indicating Conditions at Maximum Dry-Bulb {BasedOnField A3}
  101289,                                 ! Barometric Pressure {Pa}
  4.8,                                    ! Wind Speed {m/s}
  240,                                    ! Wind Direction {deg}
  0,                                      ! Sky Clearness
  0,                                      ! Rain Indicator
  0,                                      ! Snow Indicator
  21,                                     ! Day of Month
  7,                                      ! Month
  SummerDesignDay,                        ! Day Type
  0,                                      ! Daylight Saving Time Indicator
  Dewpoint,                               ! Humidity Indicating Type
  ,                                       ! Humidity Indicating Day Schedule Name
  DefaultMultipliers,                     ! Dry-Bulb Temperature Range Modifier Type
  ,                                       ! Dry-Bulb Temperature Range Modifier Schedule Name
  ASHRAETau,                              ! Solar Model Indicator
  ,                                       ! Beam Solar Day Schedule Name
  ,                                       ! Diffuse Solar Day Schedule Name
  0.525,                                  ! ASHRAE Taub {dimensionless}
  1.838;                                  ! ASHRAE Taud {dimensionless}

OS:ComponentData,
  {4ce83a19-93fd-4827-aff2-5b7f317f1ca9}, ! Handle
  Component Data 1,                       ! Name
  {9de620a6-bf8a-4014-b046-6414637514b3}, ! UUID
  {15ba94f6-c87e-4c46-9c19-86e078a13906}, ! Version UUID
  1366309345,                             ! Creation Timestamp
  1366309345,                             ! Version Timestamp
  {2e2704df-7e95-4014-8ca0-686dbff028f3}; ! Name of Object 1

