
OS:Version,
  {298a1066-37ac-478b-800a-8575024d7a7b}, ! Handle
  0.9.3;                                  ! Version Identifier

OS:SizingPeriod:DesignDay,
  {6c34dacf-200e-4801-8bb5-f917f90573c9}, ! Handle
  Pawtucket  Awos Ann Clg .4% Condns DP=>MDB, ! Name
  26.9,                                   ! Maximum Dry-Bulb Temperature {C}
  10.4,                                   ! Daily Dry-Bulb Temperature Range {deltaC}
  22.5,                                   ! Humidity Indicating Conditions at Maximum Dry-Bulb {BasedOnField A3}
  99726,                                  ! Barometric Pressure {Pa}
  3.1,                                    ! Wind Speed {m/s}
  250,                                    ! Wind Direction {deg}
  0,                                      ! Sky Clearness
  0,                                      ! Rain Indicator
  0,                                      ! Snow Indicator
  21,                                     ! Day of Month
  7,                                      ! Month
  SummerDesignDay,                        ! Day Type
  0,                                      ! Daylight Saving Time Indicator
  Dewpoint,                               ! Humidity Indicating Type
  ,                                       ! Humidity Indicating Day Schedule Name
  DefaultMultipliers,                     ! Dry-Bulb Temperature Range Modifier Type
  ,                                       ! Dry-Bulb Temperature Range Modifier Schedule Name
  ASHRAETau,                              ! Solar Model Indicator
  ,                                       ! Beam Solar Day Schedule Name
  ,                                       ! Diffuse Solar Day Schedule Name
  0.485,                                  ! ASHRAE Taub {dimensionless}
  1.939;                                  ! ASHRAE Taud {dimensionless}

OS:ComponentData,
  {4af5420a-5872-4fda-9321-2d81ce910eb2}, ! Handle
  Component Data 1,                       ! Name
  {9a478b3f-0245-4607-ba7d-040822795898}, ! UUID
  {5acf1f58-9aff-4463-95a1-02e1a5082182}, ! Version UUID
  1366310294,                             ! Creation Timestamp
  1366310294,                             ! Version Timestamp
  {6c34dacf-200e-4801-8bb5-f917f90573c9}; ! Name of Object 1

