
OS:Version,
  {547aabba-f9c9-408d-9472-eb92206be8a8}, ! Handle
  0.9.3;                                  ! Version Identifier

OS:SizingPeriod:DesignDay,
  {60cf7c1e-4bb2-46da-af11-1622cb8ed3fe}, ! Handle
  Topeka Ann Clg .4% Condns DP=>MDB,      ! Name
  30.1,                                   ! Maximum Dry-Bulb Temperature {C}
  11.3,                                   ! Daily Dry-Bulb Temperature Range {deltaC}
  24.2,                                   ! Humidity Indicating Conditions at Maximum Dry-Bulb {BasedOnField A3}
  98123,                                  ! Barometric Pressure {Pa}
  4.9,                                    ! Wind Speed {m/s}
  200,                                    ! Wind Direction {deg}
  0,                                      ! Sky Clearness
  0,                                      ! Rain Indicator
  0,                                      ! Snow Indicator
  21,                                     ! Day of Month
  7,                                      ! Month
  SummerDesignDay,                        ! Day Type
  0,                                      ! Daylight Saving Time Indicator
  Dewpoint,                               ! Humidity Indicating Type
  ,                                       ! Humidity Indicating Day Schedule Name
  DefaultMultipliers,                     ! Dry-Bulb Temperature Range Modifier Type
  ,                                       ! Dry-Bulb Temperature Range Modifier Schedule Name
  ASHRAETau,                              ! Solar Model Indicator
  ,                                       ! Beam Solar Day Schedule Name
  ,                                       ! Diffuse Solar Day Schedule Name
  0.434,                                  ! ASHRAE Taub {dimensionless}
  2.183;                                  ! ASHRAE Taud {dimensionless}

OS:ComponentData,
  {1c1dfd20-0cfa-4f15-8794-0bfe6a2f4bb2}, ! Handle
  Component Data 1,                       ! Name
  {d1f7d642-27a7-4f89-8a07-5f080ee55ee6}, ! UUID
  {d1ec640a-8259-40d9-b0e6-e1b7ee6b266e}, ! Version UUID
  1366307584,                             ! Creation Timestamp
  1366307584,                             ! Version Timestamp
  {60cf7c1e-4bb2-46da-af11-1622cb8ed3fe}; ! Name of Object 1

