
OS:Version,
  {a076bc27-035e-4fc8-831e-aa718ba189ec}, ! Handle
  0.9.3;                                  ! Version Identifier

OS:SizingPeriod:DesignDay,
  {3e456c0e-df99-4502-a3ee-136b37b99c36}, ! Handle
  SOUTH_BEND Ann Htg 99% Condns DB,       ! Name
  -15.3,                                  ! Maximum Dry-Bulb Temperature {C}
  0,                                      ! Daily Dry-Bulb Temperature Range {deltaC}
  -15.3,                                  ! Humidity Indicating Conditions at Maximum Dry-Bulb {BasedOnField A3}
  98522,                                  ! Barometric Pressure {Pa}
  5.1,                                    ! Wind Speed {m/s}
  230,                                    ! Wind Direction {deg}
  0,                                      ! Sky Clearness
  0,                                      ! Rain Indicator
  0,                                      ! Snow Indicator
  21,                                     ! Day of Month
  1,                                      ! Month
  WinterDesignDay,                        ! Day Type
  0,                                      ! Daylight Saving Time Indicator
  Wetbulb,                                ! Humidity Indicating Type
  ,                                       ! Humidity Indicating Day Schedule Name
  DefaultMultipliers,                     ! Dry-Bulb Temperature Range Modifier Type
  ,                                       ! Dry-Bulb Temperature Range Modifier Schedule Name
  ASHRAEClearSky;                         ! Solar Model Indicator

OS:ComponentData,
  {069e7427-f2fc-4fa1-91fc-093561af25a5}, ! Handle
  Component Data 1,                       ! Name
  {b311dd0f-4519-4929-8e44-41991ab5d2a2}, ! UUID
  {df512046-aa28-4303-bf3f-6210c1a2f73a}, ! Version UUID
  1366307486,                             ! Creation Timestamp
  1366307486,                             ! Version Timestamp
  {3e456c0e-df99-4502-a3ee-136b37b99c36}; ! Name of Object 1

