
OS:Version,
  {6950ffe8-1b8e-45c8-b3e6-ca111d7a8640}, ! Handle
  0.9.3;                                  ! Version Identifier

OS:SizingPeriod:DesignDay,
  {387e1166-2a57-4256-a77d-c37bd708c3f2}, ! Handle
  Savannah Ann Clg .4% Condns WB=>MDB,    ! Name
  32,                                     ! Maximum Dry-Bulb Temperature {C}
  10,                                     ! Daily Dry-Bulb Temperature Range {deltaC}
  26.8,                                   ! Humidity Indicating Conditions at Maximum Dry-Bulb {BasedOnField A3}
  101145,                                 ! Barometric Pressure {Pa}
  3.7,                                    ! Wind Speed {m/s}
  290,                                    ! Wind Direction {deg}
  0,                                      ! Sky Clearness
  0,                                      ! Rain Indicator
  0,                                      ! Snow Indicator
  21,                                     ! Day of Month
  7,                                      ! Month
  SummerDesignDay,                        ! Day Type
  0,                                      ! Daylight Saving Time Indicator
  Wetbulb,                                ! Humidity Indicating Type
  ,                                       ! Humidity Indicating Day Schedule Name
  DefaultMultipliers,                     ! Dry-Bulb Temperature Range Modifier Type
  ,                                       ! Dry-Bulb Temperature Range Modifier Schedule Name
  ASHRAETau,                              ! Solar Model Indicator
  ,                                       ! Beam Solar Day Schedule Name
  ,                                       ! Diffuse Solar Day Schedule Name
  0.558,                                  ! ASHRAE Taub {dimensionless}
  1.811;                                  ! ASHRAE Taud {dimensionless}

OS:ComponentData,
  {929bd29c-215b-422b-9599-97529c8c90c0}, ! Handle
  Component Data 1,                       ! Name
  {bdc305f1-dfe2-411c-be53-e04c88901d9a}, ! UUID
  {75cf1da5-070d-4dfe-a28d-47ee7ce33646}, ! Version UUID
  1366307053,                             ! Creation Timestamp
  1366307053,                             ! Version Timestamp
  {387e1166-2a57-4256-a77d-c37bd708c3f2}; ! Name of Object 1

