
OS:Version,
  {77e0b451-3c7a-425f-bb2a-d710eb849bfc}, ! Handle
  0.9.3;                                  ! Version Identifier

OS:SizingPeriod:DesignDay,
  {6f8ad810-fbc4-4bf4-af3e-9ae0c9f37f42}, ! Handle
  Melbourne Regional Ap Ann Hum_n 99.6% Condns DP=>MCDB, ! Name
  7.8,                                    ! Maximum Dry-Bulb Temperature {C}
  0,                                      ! Daily Dry-Bulb Temperature Range {deltaC}
  -3.7,                                   ! Humidity Indicating Conditions at Maximum Dry-Bulb {BasedOnField A3}
  101193,                                 ! Barometric Pressure {Pa}
  3.9,                                    ! Wind Speed {m/s}
  310,                                    ! Wind Direction {deg}
  0,                                      ! Sky Clearness
  0,                                      ! Rain Indicator
  0,                                      ! Snow Indicator
  21,                                     ! Day of Month
  1,                                      ! Month
  WinterDesignDay,                        ! Day Type
  0,                                      ! Daylight Saving Time Indicator
  Dewpoint,                               ! Humidity Indicating Type
  ,                                       ! Humidity Indicating Day Schedule Name
  DefaultMultipliers,                     ! Dry-Bulb Temperature Range Modifier Type
  ,                                       ! Dry-Bulb Temperature Range Modifier Schedule Name
  ASHRAEClearSky;                         ! Solar Model Indicator

OS:ComponentData,
  {c8ae41d4-e550-4b6e-a21d-c5581cc989f2}, ! Handle
  Component Data 1,                       ! Name
  {c5740501-b00a-4ad2-b86d-ae4e875384ac}, ! UUID
  {7265bc8f-58c7-4d7e-99c4-51d69cbc6dfd}, ! Version UUID
  1366306853,                             ! Creation Timestamp
  1366306853,                             ! Version Timestamp
  {6f8ad810-fbc4-4bf4-af3e-9ae0c9f37f42}; ! Name of Object 1

