
OS:Version,
  {1844f6bc-dfca-4aa2-a5d1-84413d9d7055}, ! Handle
  0.9.3;                                  ! Version Identifier

OS:SizingPeriod:DesignDay,
  {7ca9f479-d9bc-498c-8fbe-ce82bcc83897}, ! Handle
  Point Hope  Awos Ann Htg 99.6% Condns DB, ! Name
  -35.9,                                  ! Maximum Dry-Bulb Temperature {C}
  0,                                      ! Daily Dry-Bulb Temperature Range {deltaC}
  -35.9,                                  ! Humidity Indicating Conditions at Maximum Dry-Bulb {BasedOnField A3}
  101277,                                 ! Barometric Pressure {Pa}
  3.7,                                    ! Wind Speed {m/s}
  320,                                    ! Wind Direction {deg}
  0,                                      ! Sky Clearness
  0,                                      ! Rain Indicator
  0,                                      ! Snow Indicator
  21,                                     ! Day of Month
  1,                                      ! Month
  WinterDesignDay,                        ! Day Type
  0,                                      ! Daylight Saving Time Indicator
  Wetbulb,                                ! Humidity Indicating Type
  ,                                       ! Humidity Indicating Day Schedule Name
  DefaultMultipliers,                     ! Dry-Bulb Temperature Range Modifier Type
  ,                                       ! Dry-Bulb Temperature Range Modifier Schedule Name
  ASHRAEClearSky;                         ! Solar Model Indicator

OS:ComponentData,
  {41eaaacc-f79d-4808-b40c-f1fee26e8f7e}, ! Handle
  Component Data 1,                       ! Name
  {152e3194-f63d-46f0-b6fe-4458578a906a}, ! UUID
  {e1a7a589-5951-46fe-858c-3c247018a687}, ! Version UUID
  1366305488,                             ! Creation Timestamp
  1366305488,                             ! Version Timestamp
  {7ca9f479-d9bc-498c-8fbe-ce82bcc83897}; ! Name of Object 1

