
OS:Version,
  {33ae5652-37c2-44d0-9040-1f1c6331238a}, ! Handle
  0.9.3;                                  ! Version Identifier

OS:SizingPeriod:DesignDay,
  {6a48d897-36a9-4d01-82ad-6ef0de9d3c2d}, ! Handle
  Norwood Memorial Ann Clg 2% Condns DP=>MDB, ! Name
  25.7,                                   ! Maximum Dry-Bulb Temperature {C}
  11.9,                                   ! Daily Dry-Bulb Temperature Range {deltaC}
  22.3,                                   ! Humidity Indicating Conditions at Maximum Dry-Bulb {BasedOnField A3}
  101145,                                 ! Barometric Pressure {Pa}
  4.7,                                    ! Wind Speed {m/s}
  280,                                    ! Wind Direction {deg}
  0,                                      ! Sky Clearness
  0,                                      ! Rain Indicator
  0,                                      ! Snow Indicator
  21,                                     ! Day of Month
  7,                                      ! Month
  SummerDesignDay,                        ! Day Type
  0,                                      ! Daylight Saving Time Indicator
  Dewpoint,                               ! Humidity Indicating Type
  ,                                       ! Humidity Indicating Day Schedule Name
  DefaultMultipliers,                     ! Dry-Bulb Temperature Range Modifier Type
  ,                                       ! Dry-Bulb Temperature Range Modifier Schedule Name
  ASHRAETau,                              ! Solar Model Indicator
  ,                                       ! Beam Solar Day Schedule Name
  ,                                       ! Diffuse Solar Day Schedule Name
  0.492,                                  ! ASHRAE Taub {dimensionless}
  1.934;                                  ! ASHRAE Taud {dimensionless}

OS:ComponentData,
  {20838706-bfd3-4162-8f66-66a94247fd09}, ! Handle
  Component Data 1,                       ! Name
  {5ba7650a-14cb-4887-93b7-f1781d529247}, ! UUID
  {bbf2ed4d-c17d-426d-9246-c10d21c5803a}, ! Version UUID
  1366307811,                             ! Creation Timestamp
  1366307811,                             ! Version Timestamp
  {6a48d897-36a9-4d01-82ad-6ef0de9d3c2d}; ! Name of Object 1

