
OS:Version,
  {8df28149-0dbd-45e0-8a25-77d5a2999785}, ! Handle
  0.9.3;                                  ! Version Identifier

OS:SizingPeriod:DesignDay,
  {ab9d8e20-2476-4604-94ae-114dcb0a3b79}, ! Handle
  Niagara Falls Af Ann Clg 1% Condns Enth=>MDB, ! Name
  27.7,                                   ! Maximum Dry-Bulb Temperature {C}
  10.3,                                   ! Daily Dry-Bulb Temperature Range {deltaC}
  69900,                                  ! Humidity Indicating Conditions at Maximum Dry-Bulb {BasedOnField A3}
  99181,                                  ! Barometric Pressure {Pa}
  5.7,                                    ! Wind Speed {m/s}
  220,                                    ! Wind Direction {deg}
  0,                                      ! Sky Clearness
  0,                                      ! Rain Indicator
  0,                                      ! Snow Indicator
  21,                                     ! Day of Month
  7,                                      ! Month
  SummerDesignDay,                        ! Day Type
  0,                                      ! Daylight Saving Time Indicator
  Enthalpy,                               ! Humidity Indicating Type
  ,                                       ! Humidity Indicating Day Schedule Name
  DefaultMultipliers,                     ! Dry-Bulb Temperature Range Modifier Type
  ,                                       ! Dry-Bulb Temperature Range Modifier Schedule Name
  ASHRAETau,                              ! Solar Model Indicator
  ,                                       ! Beam Solar Day Schedule Name
  ,                                       ! Diffuse Solar Day Schedule Name
  0.469,                                  ! ASHRAE Taub {dimensionless}
  1.975;                                  ! ASHRAE Taud {dimensionless}

OS:ComponentData,
  {55196577-6e03-4808-ab9f-e89f0bf46a0a}, ! Handle
  Component Data 1,                       ! Name
  {d178b093-65c9-499d-b3f3-f83b4a49a928}, ! UUID
  {be044fff-0b71-4dcd-a2d0-87cc8fb08ac5}, ! Version UUID
  1366309701,                             ! Creation Timestamp
  1366309701,                             ! Version Timestamp
  {ab9d8e20-2476-4604-94ae-114dcb0a3b79}; ! Name of Object 1

