
OS:Version,
  {aca8d3cd-87bb-49f7-9b0f-4b5432573572}, ! Handle
  0.9.3;                                  ! Version Identifier

OS:SizingPeriod:DesignDay,
  {d82ac916-c864-4394-b5c9-f50cfaff638d}, ! Handle
  Winston Salem Reynolds Ap Ann Clg .4% Condns DB=>MWB, ! Name
  33.6,                                   ! Maximum Dry-Bulb Temperature {C}
  9.6,                                    ! Daily Dry-Bulb Temperature Range {deltaC}
  23.6,                                   ! Humidity Indicating Conditions at Maximum Dry-Bulb {BasedOnField A3}
  97819,                                  ! Barometric Pressure {Pa}
  3.3,                                    ! Wind Speed {m/s}
  240,                                    ! Wind Direction {deg}
  0,                                      ! Sky Clearness
  0,                                      ! Rain Indicator
  0,                                      ! Snow Indicator
  21,                                     ! Day of Month
  7,                                      ! Month
  SummerDesignDay,                        ! Day Type
  0,                                      ! Daylight Saving Time Indicator
  Wetbulb,                                ! Humidity Indicating Type
  ,                                       ! Humidity Indicating Day Schedule Name
  DefaultMultipliers,                     ! Dry-Bulb Temperature Range Modifier Type
  ,                                       ! Dry-Bulb Temperature Range Modifier Schedule Name
  ASHRAETau,                              ! Solar Model Indicator
  ,                                       ! Beam Solar Day Schedule Name
  ,                                       ! Diffuse Solar Day Schedule Name
  0.557,                                  ! ASHRAE Taub {dimensionless}
  1.754;                                  ! ASHRAE Taud {dimensionless}

OS:ComponentData,
  {2c3aea29-7641-45cb-a872-88e32ade2ebd}, ! Handle
  Component Data 1,                       ! Name
  {fb392923-0fc4-4ca7-a56a-fc822c2838ed}, ! UUID
  {3ca91864-6eae-44fd-aff0-446eba50429f}, ! Version UUID
  1366308993,                             ! Creation Timestamp
  1366308993,                             ! Version Timestamp
  {d82ac916-c864-4394-b5c9-f50cfaff638d}; ! Name of Object 1

