
OS:Version,
  {2a662b9e-daf5-489a-b8d8-11bfe3b35655}, ! Handle
  0.9.3;                                  ! Version Identifier

OS:SizingPeriod:DesignDay,
  {387bcbbe-5b46-439d-b4e7-aba9968dc825}, ! Handle
  SIOUX_FALLS Ann Htg 99% Condns DB,      ! Name
  -22.4,                                  ! Maximum Dry-Bulb Temperature {C}
  0,                                      ! Daily Dry-Bulb Temperature Range {deltaC}
  -22.4,                                  ! Humidity Indicating Conditions at Maximum Dry-Bulb {BasedOnField A3}
  96207,                                  ! Barometric Pressure {Pa}
  4.2,                                    ! Wind Speed {m/s}
  300,                                    ! Wind Direction {deg}
  0,                                      ! Sky Clearness
  0,                                      ! Rain Indicator
  0,                                      ! Snow Indicator
  21,                                     ! Day of Month
  1,                                      ! Month
  WinterDesignDay,                        ! Day Type
  0,                                      ! Daylight Saving Time Indicator
  Wetbulb,                                ! Humidity Indicating Type
  ,                                       ! Humidity Indicating Day Schedule Name
  DefaultMultipliers,                     ! Dry-Bulb Temperature Range Modifier Type
  ,                                       ! Dry-Bulb Temperature Range Modifier Schedule Name
  ASHRAEClearSky;                         ! Solar Model Indicator

OS:ComponentData,
  {2f4dece0-9d1b-4b99-9adf-96d6862b12d9}, ! Handle
  Component Data 1,                       ! Name
  {18e598bf-5bb0-4437-b87e-f7c3ffee8c10}, ! UUID
  {19b94444-3364-4afe-a78a-80603e1e487d}, ! Version UUID
  1366310463,                             ! Creation Timestamp
  1366310463,                             ! Version Timestamp
  {387bcbbe-5b46-439d-b4e7-aba9968dc825}; ! Name of Object 1

