
OS:Version,
  {579c4565-e587-4420-a27d-9592ac95d54b}, ! Handle
  0.9.3;                                  ! Version Identifier

OS:SizingPeriod:DesignDay,
  {85836564-2da6-41b7-a9f1-97630b45a4d8}, ! Handle
  Wheaton Ndb  Awos Ann Clg 1% Condns DB=>MWB, ! Name
  30,                                     ! Maximum Dry-Bulb Temperature {C}
  11,                                     ! Daily Dry-Bulb Temperature Range {deltaC}
  22.1,                                   ! Humidity Indicating Conditions at Maximum Dry-Bulb {BasedOnField A3}
  97621,                                  ! Barometric Pressure {Pa}
  5.4,                                    ! Wind Speed {m/s}
  150,                                    ! Wind Direction {deg}
  0,                                      ! Sky Clearness
  0,                                      ! Rain Indicator
  0,                                      ! Snow Indicator
  21,                                     ! Day of Month
  7,                                      ! Month
  SummerDesignDay,                        ! Day Type
  0,                                      ! Daylight Saving Time Indicator
  Wetbulb,                                ! Humidity Indicating Type
  ,                                       ! Humidity Indicating Day Schedule Name
  DefaultMultipliers,                     ! Dry-Bulb Temperature Range Modifier Type
  ,                                       ! Dry-Bulb Temperature Range Modifier Schedule Name
  ASHRAETau,                              ! Solar Model Indicator
  ,                                       ! Beam Solar Day Schedule Name
  ,                                       ! Diffuse Solar Day Schedule Name
  0.394,                                  ! ASHRAE Taub {dimensionless}
  2.265;                                  ! ASHRAE Taud {dimensionless}

OS:ComponentData,
  {d857e13d-60ae-4104-a1e2-3a2a4de0e9f3}, ! Handle
  Component Data 1,                       ! Name
  {4c834e95-1abe-4a38-a92f-4ca035ffe5d5}, ! UUID
  {b3eb780c-aa16-448d-9a37-b1fb68355019}, ! Version UUID
  1366308451,                             ! Creation Timestamp
  1366308451,                             ! Version Timestamp
  {85836564-2da6-41b7-a9f1-97630b45a4d8}; ! Name of Object 1

