
OS:Version,
  {ab4b47e1-9d32-4779-a05c-10bb0be41eab}, ! Handle
  0.9.3;                                  ! Version Identifier

OS:SizingPeriod:DesignDay,
  {a4a9ecbe-02b4-4602-9c99-1f0e946b5945}, ! Handle
  POCATELLO Ann Htg 99.6% Condns DB,      ! Name
  -20.5,                                  ! Maximum Dry-Bulb Temperature {C}
  0,                                      ! Daily Dry-Bulb Temperature Range {deltaC}
  -20.5,                                  ! Humidity Indicating Conditions at Maximum Dry-Bulb {BasedOnField A3}
  85966,                                  ! Barometric Pressure {Pa}
  2.1,                                    ! Wind Speed {m/s}
  30,                                     ! Wind Direction {deg}
  0,                                      ! Sky Clearness
  0,                                      ! Rain Indicator
  0,                                      ! Snow Indicator
  21,                                     ! Day of Month
  12,                                     ! Month
  WinterDesignDay,                        ! Day Type
  0,                                      ! Daylight Saving Time Indicator
  Wetbulb,                                ! Humidity Indicating Type
  ,                                       ! Humidity Indicating Day Schedule Name
  DefaultMultipliers,                     ! Dry-Bulb Temperature Range Modifier Type
  ,                                       ! Dry-Bulb Temperature Range Modifier Schedule Name
  ASHRAEClearSky;                         ! Solar Model Indicator

OS:ComponentData,
  {5bdebd5a-f1bd-4de6-a1b9-25b866bd3752}, ! Handle
  Component Data 1,                       ! Name
  {0a329504-eb47-48ed-9558-0564e561615f}, ! UUID
  {668ef8d8-e706-428c-96c8-95867450006c}, ! Version UUID
  1366307298,                             ! Creation Timestamp
  1366307298,                             ! Version Timestamp
  {a4a9ecbe-02b4-4602-9c99-1f0e946b5945}; ! Name of Object 1

