
OS:Version,
  {47e645ad-4a94-4121-8ba8-4bf9d5305e9e}, ! Handle
  0.9.3;                                  ! Version Identifier

OS:SizingPeriod:DesignDay,
  {74b28fe5-0b96-4f91-aea4-acefc9d9220c}, ! Handle
  Philadelphia Ne Philadelphia Ann Hum_n 99% Condns DP=>MCDB, ! Name
  -7.5,                                   ! Maximum Dry-Bulb Temperature {C}
  0,                                      ! Daily Dry-Bulb Temperature Range {deltaC}
  -17.4,                                  ! Humidity Indicating Conditions at Maximum Dry-Bulb {BasedOnField A3}
  100965,                                 ! Barometric Pressure {Pa}
  4.5,                                    ! Wind Speed {m/s}
  300,                                    ! Wind Direction {deg}
  0,                                      ! Sky Clearness
  0,                                      ! Rain Indicator
  0,                                      ! Snow Indicator
  21,                                     ! Day of Month
  1,                                      ! Month
  WinterDesignDay,                        ! Day Type
  0,                                      ! Daylight Saving Time Indicator
  Dewpoint,                               ! Humidity Indicating Type
  ,                                       ! Humidity Indicating Day Schedule Name
  DefaultMultipliers,                     ! Dry-Bulb Temperature Range Modifier Type
  ,                                       ! Dry-Bulb Temperature Range Modifier Schedule Name
  ASHRAEClearSky;                         ! Solar Model Indicator

OS:ComponentData,
  {cdb0c6a8-ad77-433f-a362-5780412e25ec}, ! Handle
  Component Data 1,                       ! Name
  {0e34c984-5514-4f1e-a3eb-531f58fd5a57}, ! UUID
  {1300b0d5-55e3-471e-94cc-d72e0a4aa2d8}, ! Version UUID
  1366310207,                             ! Creation Timestamp
  1366310207,                             ! Version Timestamp
  {74b28fe5-0b96-4f91-aea4-acefc9d9220c}; ! Name of Object 1

