
OS:Version,
  {8f6980c9-97f9-4fa3-b853-181d4cccfd77}, ! Handle
  0.9.3;                                  ! Version Identifier

OS:SizingPeriod:DesignDay,
  {1baadfdb-6004-4474-a783-4a1ed4381604}, ! Handle
  Stockton Metropolitan Arpt Ann Htg Wind 99.6% Condns WS=>MCDB, ! Name
  11.9,                                   ! Maximum Dry-Bulb Temperature {C}
  0,                                      ! Daily Dry-Bulb Temperature Range {deltaC}
  11.9,                                   ! Humidity Indicating Conditions at Maximum Dry-Bulb {BasedOnField A3}
  101241,                                 ! Barometric Pressure {Pa}
  12.1,                                   ! Wind Speed {m/s}
  130,                                    ! Wind Direction {deg}
  0,                                      ! Sky Clearness
  0,                                      ! Rain Indicator
  0,                                      ! Snow Indicator
  21,                                     ! Day of Month
  12,                                     ! Month
  WinterDesignDay,                        ! Day Type
  0,                                      ! Daylight Saving Time Indicator
  Wetbulb,                                ! Humidity Indicating Type
  ,                                       ! Humidity Indicating Day Schedule Name
  DefaultMultipliers,                     ! Dry-Bulb Temperature Range Modifier Type
  ,                                       ! Dry-Bulb Temperature Range Modifier Schedule Name
  ASHRAEClearSky;                         ! Solar Model Indicator

OS:ComponentData,
  {53e40e15-256b-4438-bd7e-a93c845aa68e}, ! Handle
  Component Data 1,                       ! Name
  {26c217e6-711c-4f8e-9fbb-e6ab21518dc0}, ! UUID
  {16c6c089-fe3a-40be-988d-22a0244c5e52}, ! Version UUID
  1366306622,                             ! Creation Timestamp
  1366306622,                             ! Version Timestamp
  {1baadfdb-6004-4474-a783-4a1ed4381604}; ! Name of Object 1

