
OS:Version,
  {02b38195-b7c3-4610-a312-849d82fa228e}, ! Handle
  0.9.3;                                  ! Version Identifier

OS:SizingPeriod:DesignDay,
  {0126ae06-e50f-4941-baec-a0f8e6da6d61}, ! Handle
  WILKES-BARRE Ann Clg .4% Condns WB=>MDB, ! Name
  28.9,                                   ! Maximum Dry-Bulb Temperature {C}
  10.8,                                   ! Daily Dry-Bulb Temperature Range {deltaC}
  23.9,                                   ! Humidity Indicating Conditions at Maximum Dry-Bulb {BasedOnField A3}
  97901,                                  ! Barometric Pressure {Pa}
  4.5,                                    ! Wind Speed {m/s}
  240,                                    ! Wind Direction {deg}
  0,                                      ! Sky Clearness
  0,                                      ! Rain Indicator
  0,                                      ! Snow Indicator
  21,                                     ! Day of Month
  7,                                      ! Month
  SummerDesignDay,                        ! Day Type
  0,                                      ! Daylight Saving Time Indicator
  Wetbulb,                                ! Humidity Indicating Type
  ,                                       ! Humidity Indicating Day Schedule Name
  DefaultMultipliers,                     ! Dry-Bulb Temperature Range Modifier Type
  ,                                       ! Dry-Bulb Temperature Range Modifier Schedule Name
  ASHRAETau,                              ! Solar Model Indicator
  ,                                       ! Beam Solar Day Schedule Name
  ,                                       ! Diffuse Solar Day Schedule Name
  0.477,                                  ! ASHRAE Taub {dimensionless}
  1.945;                                  ! ASHRAE Taud {dimensionless}

OS:ComponentData,
  {dd21797a-5989-48f7-a4e3-99f32c425006}, ! Handle
  Component Data 1,                       ! Name
  {688a7c52-7314-46ec-b5ea-132ca2ebe8b1}, ! UUID
  {366c8245-c8fc-442a-980c-1c76ffe06f43}, ! Version UUID
  1366310270,                             ! Creation Timestamp
  1366310270,                             ! Version Timestamp
  {0126ae06-e50f-4941-baec-a0f8e6da6d61}; ! Name of Object 1

