
OS:Version,
  {8e2d056a-d44e-4c56-8733-e773e1c8c265}, ! Handle
  0.9.3;                                  ! Version Identifier

OS:SizingPeriod:DesignDay,
  {18c2447b-0b27-4d73-b786-f60d003422b1}, ! Handle
  Macdill Afb Ann Htg 99% Condns DB,      ! Name
  6.8,                                    ! Maximum Dry-Bulb Temperature {C}
  0,                                      ! Daily Dry-Bulb Temperature Range {deltaC}
  6.8,                                    ! Humidity Indicating Conditions at Maximum Dry-Bulb {BasedOnField A3}
  101229,                                 ! Barometric Pressure {Pa}
  2.5,                                    ! Wind Speed {m/s}
  10,                                     ! Wind Direction {deg}
  0,                                      ! Sky Clearness
  0,                                      ! Rain Indicator
  0,                                      ! Snow Indicator
  21,                                     ! Day of Month
  1,                                      ! Month
  WinterDesignDay,                        ! Day Type
  0,                                      ! Daylight Saving Time Indicator
  Wetbulb,                                ! Humidity Indicating Type
  ,                                       ! Humidity Indicating Day Schedule Name
  DefaultMultipliers,                     ! Dry-Bulb Temperature Range Modifier Type
  ,                                       ! Dry-Bulb Temperature Range Modifier Schedule Name
  ASHRAEClearSky;                         ! Solar Model Indicator

OS:ComponentData,
  {816bc155-365f-4cca-94a5-2d9605589cb3}, ! Handle
  Component Data 1,                       ! Name
  {fa3d7610-22f1-4e3e-bc3e-65a6eca0071f}, ! UUID
  {3f7a72e2-1de7-49f4-84d0-e574f13a9e2c}, ! Version UUID
  1366306843,                             ! Creation Timestamp
  1366306843,                             ! Version Timestamp
  {18c2447b-0b27-4d73-b786-f60d003422b1}; ! Name of Object 1

