
OS:Version,
  {eabaece8-57eb-474e-b826-2bff9b28735e}, ! Handle
  0.9.3;                                  ! Version Identifier

OS:SizingPeriod:DesignDay,
  {f5cb23a5-f967-4018-8d50-3cb3dfc1ee92}, ! Handle
  Omaha Wsfo Ann Clg 1% Condns WB=>MDB,   ! Name
  30.5,                                   ! Maximum Dry-Bulb Temperature {C}
  9.7,                                    ! Daily Dry-Bulb Temperature Range {deltaC}
  24.4,                                   ! Humidity Indicating Conditions at Maximum Dry-Bulb {BasedOnField A3}
  96623,                                  ! Barometric Pressure {Pa}
  4.7,                                    ! Wind Speed {m/s}
  170,                                    ! Wind Direction {deg}
  0,                                      ! Sky Clearness
  0,                                      ! Rain Indicator
  0,                                      ! Snow Indicator
  21,                                     ! Day of Month
  7,                                      ! Month
  SummerDesignDay,                        ! Day Type
  0,                                      ! Daylight Saving Time Indicator
  Wetbulb,                                ! Humidity Indicating Type
  ,                                       ! Humidity Indicating Day Schedule Name
  DefaultMultipliers,                     ! Dry-Bulb Temperature Range Modifier Type
  ,                                       ! Dry-Bulb Temperature Range Modifier Schedule Name
  ASHRAETau,                              ! Solar Model Indicator
  ,                                       ! Beam Solar Day Schedule Name
  ,                                       ! Diffuse Solar Day Schedule Name
  0.414,                                  ! ASHRAE Taub {dimensionless}
  2.216;                                  ! ASHRAE Taud {dimensionless}

OS:ComponentData,
  {d684b896-5e45-4c86-883d-451a2bce6ddc}, ! Handle
  Component Data 1,                       ! Name
  {ecba07fb-599f-45fd-abc3-0e6f43c4b54e}, ! UUID
  {782558a7-5c8c-4b32-a8c9-ee7e4b1666e3}, ! Version UUID
  1366309181,                             ! Creation Timestamp
  1366309181,                             ! Version Timestamp
  {f5cb23a5-f967-4018-8d50-3cb3dfc1ee92}; ! Name of Object 1

