
OS:Version,
  {e65a5338-8673-4138-a35e-2f1fa11bb64f}, ! Handle
  0.9.3;                                  ! Version Identifier

OS:SizingPeriod:DesignDay,
  {e31758b6-751f-4b69-82a0-0a00bf588577}, ! Handle
  Trinidad Las Animas County Ap Ann Hum_n 99.6% Condns DP=>MCDB, ! Name
  -11.8,                                  ! Maximum Dry-Bulb Temperature {C}
  0,                                      ! Daily Dry-Bulb Temperature Range {deltaC}
  -22.7,                                  ! Humidity Indicating Conditions at Maximum Dry-Bulb {BasedOnField A3}
  81984,                                  ! Barometric Pressure {Pa}
  3,                                      ! Wind Speed {m/s}
  270,                                    ! Wind Direction {deg}
  0,                                      ! Sky Clearness
  0,                                      ! Rain Indicator
  0,                                      ! Snow Indicator
  21,                                     ! Day of Month
  12,                                     ! Month
  WinterDesignDay,                        ! Day Type
  0,                                      ! Daylight Saving Time Indicator
  Dewpoint,                               ! Humidity Indicating Type
  ,                                       ! Humidity Indicating Day Schedule Name
  DefaultMultipliers,                     ! Dry-Bulb Temperature Range Modifier Type
  ,                                       ! Dry-Bulb Temperature Range Modifier Schedule Name
  ASHRAEClearSky;                         ! Solar Model Indicator

OS:ComponentData,
  {4ec67c2d-699b-4195-a0d0-570e331858fe}, ! Handle
  Component Data 1,                       ! Name
  {e4503754-2f54-4b44-8ed7-459167d53b63}, ! UUID
  {f018130e-6ce4-406b-9585-037a6c09488f}, ! Version UUID
  1366306743,                             ! Creation Timestamp
  1366306743,                             ! Version Timestamp
  {e31758b6-751f-4b69-82a0-0a00bf588577}; ! Name of Object 1

