
OS:Version,
  {e4a4f1ea-dc8d-42fe-b8f8-eb00aaf6115f}, ! Handle
  0.9.3;                                  ! Version Identifier

OS:SizingPeriod:DesignDay,
  {a1d9732d-a431-4739-adc2-2f1992f81728}, ! Handle
  Miami Kendall Tamia Ann Clg .4% Condns WB=>MDB, ! Name
  30.9,                                   ! Maximum Dry-Bulb Temperature {C}
  8.4,                                    ! Daily Dry-Bulb Temperature Range {deltaC}
  26.8,                                   ! Humidity Indicating Conditions at Maximum Dry-Bulb {BasedOnField A3}
  101289,                                 ! Barometric Pressure {Pa}
  4.7,                                    ! Wind Speed {m/s}
  120,                                    ! Wind Direction {deg}
  0,                                      ! Sky Clearness
  0,                                      ! Rain Indicator
  0,                                      ! Snow Indicator
  21,                                     ! Day of Month
  8,                                      ! Month
  SummerDesignDay,                        ! Day Type
  0,                                      ! Daylight Saving Time Indicator
  Wetbulb,                                ! Humidity Indicating Type
  ,                                       ! Humidity Indicating Day Schedule Name
  DefaultMultipliers,                     ! Dry-Bulb Temperature Range Modifier Type
  ,                                       ! Dry-Bulb Temperature Range Modifier Schedule Name
  ASHRAETau,                              ! Solar Model Indicator
  ,                                       ! Beam Solar Day Schedule Name
  ,                                       ! Diffuse Solar Day Schedule Name
  0.51,                                   ! ASHRAE Taub {dimensionless}
  1.967;                                  ! ASHRAE Taud {dimensionless}

OS:ComponentData,
  {6f31c717-80a7-4238-8533-f966e5358dcf}, ! Handle
  Component Data 1,                       ! Name
  {bef2032d-2321-4b10-b14f-c4426d51eab8}, ! UUID
  {0af73a0b-64b1-43cb-b441-8679aac5ae3c}, ! Version UUID
  1366306856,                             ! Creation Timestamp
  1366306856,                             ! Version Timestamp
  {a1d9732d-a431-4739-adc2-2f1992f81728}; ! Name of Object 1

