
OS:Version,
  {98d279e4-288c-4c82-ad49-36090ff0a1dd}, ! Handle
  0.9.3;                                  ! Version Identifier

OS:SizingPeriod:DesignDay,
  {7c16161d-2498-4bd7-b4cc-d18b8a834df6}, ! Handle
  Oakland Metropolitan Arpt Ann Clg .4% Condns WB=>MDB, ! Name
  25.5,                                   ! Maximum Dry-Bulb Temperature {C}
  7.4,                                    ! Daily Dry-Bulb Temperature Range {deltaC}
  19.8,                                   ! Humidity Indicating Conditions at Maximum Dry-Bulb {BasedOnField A3}
  101301,                                 ! Barometric Pressure {Pa}
  4.9,                                    ! Wind Speed {m/s}
  290,                                    ! Wind Direction {deg}
  0,                                      ! Sky Clearness
  0,                                      ! Rain Indicator
  0,                                      ! Snow Indicator
  21,                                     ! Day of Month
  8,                                      ! Month
  SummerDesignDay,                        ! Day Type
  0,                                      ! Daylight Saving Time Indicator
  Wetbulb,                                ! Humidity Indicating Type
  ,                                       ! Humidity Indicating Day Schedule Name
  DefaultMultipliers,                     ! Dry-Bulb Temperature Range Modifier Type
  ,                                       ! Dry-Bulb Temperature Range Modifier Schedule Name
  ASHRAETau,                              ! Solar Model Indicator
  ,                                       ! Beam Solar Day Schedule Name
  ,                                       ! Diffuse Solar Day Schedule Name
  0.367,                                  ! ASHRAE Taub {dimensionless}
  2.428;                                  ! ASHRAE Taud {dimensionless}

OS:ComponentData,
  {a57e7b57-1137-4f13-b668-998f305471d8}, ! Handle
  Component Data 1,                       ! Name
  {1c468a17-7b40-4491-ad41-a82cd15bb9ab}, ! UUID
  {0d71443a-04a5-4bb0-b6bc-be1e92badc08}, ! Version UUID
  1366306523,                             ! Creation Timestamp
  1366306523,                             ! Version Timestamp
  {7c16161d-2498-4bd7-b4cc-d18b8a834df6}; ! Name of Object 1

