
OS:Version,
  {7fe6a56a-f66a-4bc7-a244-b5621dd6a5d3}, ! Handle
  0.9.3;                                  ! Version Identifier

OS:SizingPeriod:DesignDay,
  {7f84368e-71c9-4eaf-9bca-211a76f13293}, ! Handle
  Natchez Hardy Awos Ann Clg 1% Condns DP=>MDB, ! Name
  28.4,                                   ! Maximum Dry-Bulb Temperature {C}
  9.7,                                    ! Daily Dry-Bulb Temperature Range {deltaC}
  24.1,                                   ! Humidity Indicating Conditions at Maximum Dry-Bulb {BasedOnField A3}
  100332,                                 ! Barometric Pressure {Pa}
  2.6,                                    ! Wind Speed {m/s}
  240,                                    ! Wind Direction {deg}
  0,                                      ! Sky Clearness
  0,                                      ! Rain Indicator
  0,                                      ! Snow Indicator
  21,                                     ! Day of Month
  7,                                      ! Month
  SummerDesignDay,                        ! Day Type
  0,                                      ! Daylight Saving Time Indicator
  Dewpoint,                               ! Humidity Indicating Type
  ,                                       ! Humidity Indicating Day Schedule Name
  DefaultMultipliers,                     ! Dry-Bulb Temperature Range Modifier Type
  ,                                       ! Dry-Bulb Temperature Range Modifier Schedule Name
  ASHRAETau,                              ! Solar Model Indicator
  ,                                       ! Beam Solar Day Schedule Name
  ,                                       ! Diffuse Solar Day Schedule Name
  0.519,                                  ! ASHRAE Taub {dimensionless}
  1.903;                                  ! ASHRAE Taud {dimensionless}

OS:ComponentData,
  {456bf1f5-bb87-400b-9bd8-f44372031e29}, ! Handle
  Component Data 1,                       ! Name
  {05d717b7-189a-4c74-9719-9e03ec2b9141}, ! UUID
  {357d27d6-79a6-4d31-b44a-b6693e3b2ec9}, ! Version UUID
  1366308686,                             ! Creation Timestamp
  1366308686,                             ! Version Timestamp
  {7f84368e-71c9-4eaf-9bca-211a76f13293}; ! Name of Object 1

