
OS:Version,
  {90534111-1d02-4079-8aa9-60fc4747ee11}, ! Handle
  0.9.3;                                  ! Version Identifier

OS:SizingPeriod:DesignDay,
  {5ebf0d67-d058-44c5-9d75-e9ff5f95a86b}, ! Handle
  Yakima Ann Clg 1% Condns WB=>MDB,       ! Name
  31.4,                                   ! Maximum Dry-Bulb Temperature {C}
  17.9,                                   ! Daily Dry-Bulb Temperature Range {deltaC}
  19.2,                                   ! Humidity Indicating Conditions at Maximum Dry-Bulb {BasedOnField A3}
  97481,                                  ! Barometric Pressure {Pa}
  2.7,                                    ! Wind Speed {m/s}
  100,                                    ! Wind Direction {deg}
  0,                                      ! Sky Clearness
  0,                                      ! Rain Indicator
  0,                                      ! Snow Indicator
  21,                                     ! Day of Month
  7,                                      ! Month
  SummerDesignDay,                        ! Day Type
  0,                                      ! Daylight Saving Time Indicator
  Wetbulb,                                ! Humidity Indicating Type
  ,                                       ! Humidity Indicating Day Schedule Name
  DefaultMultipliers,                     ! Dry-Bulb Temperature Range Modifier Type
  ,                                       ! Dry-Bulb Temperature Range Modifier Schedule Name
  ASHRAETau,                              ! Solar Model Indicator
  ,                                       ! Beam Solar Day Schedule Name
  ,                                       ! Diffuse Solar Day Schedule Name
  0.395,                                  ! ASHRAE Taub {dimensionless}
  2.249;                                  ! ASHRAE Taud {dimensionless}

OS:ComponentData,
  {560bfa00-7816-4625-9dcd-31787997f386}, ! Handle
  Component Data 1,                       ! Name
  {5e6d6ab7-9f6e-4575-b085-9e3938b3fc0d}, ! UUID
  {5d3e1604-012a-41d7-bc89-9b25e80eeed1}, ! Version UUID
  1366311448,                             ! Creation Timestamp
  1366311448,                             ! Version Timestamp
  {5ebf0d67-d058-44c5-9d75-e9ff5f95a86b}; ! Name of Object 1

