
OS:Version,
  {b59653e3-53db-4574-b161-4dd1dab0d554}, ! Handle
  0.9.3;                                  ! Version Identifier

OS:SizingPeriod:DesignDay,
  {0dc36964-2d43-44fc-a619-97b22e7d7abb}, ! Handle
  Omaha Eppley Airfield Ann Clg 2% Condns DP=>MDB, ! Name
  27.8,                                   ! Maximum Dry-Bulb Temperature {C}
  11,                                     ! Daily Dry-Bulb Temperature Range {deltaC}
  22.6,                                   ! Humidity Indicating Conditions at Maximum Dry-Bulb {BasedOnField A3}
  97784,                                  ! Barometric Pressure {Pa}
  6.1,                                    ! Wind Speed {m/s}
  180,                                    ! Wind Direction {deg}
  0,                                      ! Sky Clearness
  0,                                      ! Rain Indicator
  0,                                      ! Snow Indicator
  21,                                     ! Day of Month
  7,                                      ! Month
  SummerDesignDay,                        ! Day Type
  0,                                      ! Daylight Saving Time Indicator
  Dewpoint,                               ! Humidity Indicating Type
  ,                                       ! Humidity Indicating Day Schedule Name
  DefaultMultipliers,                     ! Dry-Bulb Temperature Range Modifier Type
  ,                                       ! Dry-Bulb Temperature Range Modifier Schedule Name
  ASHRAETau,                              ! Solar Model Indicator
  ,                                       ! Beam Solar Day Schedule Name
  ,                                       ! Diffuse Solar Day Schedule Name
  0.421,                                  ! ASHRAE Taub {dimensionless}
  2.196;                                  ! ASHRAE Taud {dimensionless}

OS:ComponentData,
  {262720f9-75d0-4fa9-9b0d-6a0e9a5c5279}, ! Handle
  Component Data 1,                       ! Name
  {301b7a4d-1f76-4198-91ad-fc59a36a059f}, ! UUID
  {852044b2-1e45-42c7-9abf-9e966b3f5721}, ! Version UUID
  1366309174,                             ! Creation Timestamp
  1366309174,                             ! Version Timestamp
  {0dc36964-2d43-44fc-a619-97b22e7d7abb}; ! Name of Object 1

