
OS:Version,
  {64f4d82e-ab38-460e-9a93-e05096caa7db}, ! Handle
  0.9.3;                                  ! Version Identifier

OS:SizingPeriod:DesignDay,
  {93298492-e5d1-4079-8bc5-7f60e00d4012}, ! Handle
  Marathon Airport Ann Clg .4% Condns DB=>MWB, ! Name
  33,                                     ! Maximum Dry-Bulb Temperature {C}
  5.5,                                    ! Daily Dry-Bulb Temperature Range {deltaC}
  26.7,                                   ! Humidity Indicating Conditions at Maximum Dry-Bulb {BasedOnField A3}
  101301,                                 ! Barometric Pressure {Pa}
  3.2,                                    ! Wind Speed {m/s}
  110,                                    ! Wind Direction {deg}
  0,                                      ! Sky Clearness
  0,                                      ! Rain Indicator
  0,                                      ! Snow Indicator
  21,                                     ! Day of Month
  8,                                      ! Month
  SummerDesignDay,                        ! Day Type
  0,                                      ! Daylight Saving Time Indicator
  Wetbulb,                                ! Humidity Indicating Type
  ,                                       ! Humidity Indicating Day Schedule Name
  DefaultMultipliers,                     ! Dry-Bulb Temperature Range Modifier Type
  ,                                       ! Dry-Bulb Temperature Range Modifier Schedule Name
  ASHRAETau,                              ! Solar Model Indicator
  ,                                       ! Beam Solar Day Schedule Name
  ,                                       ! Diffuse Solar Day Schedule Name
  0.467,                                  ! ASHRAE Taub {dimensionless}
  2.161;                                  ! ASHRAE Taud {dimensionless}

OS:ComponentData,
  {dacaa972-19aa-4bb3-8126-b0990ac5356e}, ! Handle
  Component Data 1,                       ! Name
  {578dc2ef-441e-47b8-be10-768431282be5}, ! UUID
  {4ffb7959-d9ae-4015-9faa-8df1fe8a3ffa}, ! Version UUID
  1366306846,                             ! Creation Timestamp
  1366306846,                             ! Version Timestamp
  {93298492-e5d1-4079-8bc5-7f60e00d4012}; ! Name of Object 1

