
OS:Version,
  {c4d19dc7-d63d-4a6b-98d0-547f349b2d47}, ! Handle
  0.9.3;                                  ! Version Identifier

OS:SizingPeriod:DesignDay,
  {97c75ced-66b1-40ad-8d89-26f6ddcb8bef}, ! Handle
  Winslow Municipal Ap Ann Clg 2% Condns DB=>MWB, ! Name
  33.4,                                   ! Maximum Dry-Bulb Temperature {C}
  16.2,                                   ! Daily Dry-Bulb Temperature Range {deltaC}
  15.5,                                   ! Humidity Indicating Conditions at Maximum Dry-Bulb {BasedOnField A3}
  84660,                                  ! Barometric Pressure {Pa}
  4.7,                                    ! Wind Speed {m/s}
  260,                                    ! Wind Direction {deg}
  0,                                      ! Sky Clearness
  0,                                      ! Rain Indicator
  0,                                      ! Snow Indicator
  21,                                     ! Day of Month
  7,                                      ! Month
  SummerDesignDay,                        ! Day Type
  0,                                      ! Daylight Saving Time Indicator
  Wetbulb,                                ! Humidity Indicating Type
  ,                                       ! Humidity Indicating Day Schedule Name
  DefaultMultipliers,                     ! Dry-Bulb Temperature Range Modifier Type
  ,                                       ! Dry-Bulb Temperature Range Modifier Schedule Name
  ASHRAETau,                              ! Solar Model Indicator
  ,                                       ! Beam Solar Day Schedule Name
  ,                                       ! Diffuse Solar Day Schedule Name
  0.444,                                  ! ASHRAE Taub {dimensionless}
  1.959;                                  ! ASHRAE Taud {dimensionless}

OS:ComponentData,
  {9e533f3f-2f66-472e-b53a-0e891da7b461}, ! Handle
  Component Data 1,                       ! Name
  {98c69e1a-8c9b-4bf0-a3f3-f7a2211d8a5e}, ! UUID
  {5a86dede-65d9-46b0-ab08-c0af7b30bd00}, ! Version UUID
  1366306331,                             ! Creation Timestamp
  1366306331,                             ! Version Timestamp
  {97c75ced-66b1-40ad-8d89-26f6ddcb8bef}; ! Name of Object 1

