
OS:Version,
  {4771ce14-61f3-478b-bd44-732779e77456}, ! Handle
  0.9.3;                                  ! Version Identifier

OS:SizingPeriod:DesignDay,
  {07de003c-8c93-4c26-83c3-56ffbaba2ebc}, ! Handle
  New Orleans Alvin Callender F Ann Clg 1% Condns Enth=>MDB, ! Name
  30.4,                                   ! Maximum Dry-Bulb Temperature {C}
  8.8,                                    ! Daily Dry-Bulb Temperature Range {deltaC}
  85200,                                  ! Humidity Indicating Conditions at Maximum Dry-Bulb {BasedOnField A3}
  101301,                                 ! Barometric Pressure {Pa}
  2.3,                                    ! Wind Speed {m/s}
  90,                                     ! Wind Direction {deg}
  0,                                      ! Sky Clearness
  0,                                      ! Rain Indicator
  0,                                      ! Snow Indicator
  21,                                     ! Day of Month
  7,                                      ! Month
  SummerDesignDay,                        ! Day Type
  0,                                      ! Daylight Saving Time Indicator
  Enthalpy,                               ! Humidity Indicating Type
  ,                                       ! Humidity Indicating Day Schedule Name
  DefaultMultipliers,                     ! Dry-Bulb Temperature Range Modifier Type
  ,                                       ! Dry-Bulb Temperature Range Modifier Schedule Name
  ASHRAETau,                              ! Solar Model Indicator
  ,                                       ! Beam Solar Day Schedule Name
  ,                                       ! Diffuse Solar Day Schedule Name
  0.565,                                  ! ASHRAE Taub {dimensionless}
  1.798;                                  ! ASHRAE Taud {dimensionless}

OS:ComponentData,
  {7bd42451-12c7-4a57-91ba-3d07585920c4}, ! Handle
  Component Data 1,                       ! Name
  {23151331-f5a2-4219-b219-7c65fa8d68fe}, ! UUID
  {4a66488d-d801-41e4-9269-f722beb99540}, ! Version UUID
  1366307741,                             ! Creation Timestamp
  1366307741,                             ! Version Timestamp
  {07de003c-8c93-4c26-83c3-56ffbaba2ebc}; ! Name of Object 1

