
OS:Version,
  {0e1deeb7-1b96-4579-90bc-fa91523d1aa1}, ! Handle
  0.9.3;                                  ! Version Identifier

OS:SizingPeriod:DesignDay,
  {0f166072-3e21-4e8a-ba6c-4136617623d3}, ! Handle
  Poplar Bluff Amos Ann Clg 1% Condns Enth=>MDB, ! Name
  31.6,                                   ! Maximum Dry-Bulb Temperature {C}
  10.6,                                   ! Daily Dry-Bulb Temperature Range {deltaC}
  81100,                                  ! Humidity Indicating Conditions at Maximum Dry-Bulb {BasedOnField A3}
  99583,                                  ! Barometric Pressure {Pa}
  3.1,                                    ! Wind Speed {m/s}
  200,                                    ! Wind Direction {deg}
  0,                                      ! Sky Clearness
  0,                                      ! Rain Indicator
  0,                                      ! Snow Indicator
  21,                                     ! Day of Month
  7,                                      ! Month
  SummerDesignDay,                        ! Day Type
  0,                                      ! Daylight Saving Time Indicator
  Enthalpy,                               ! Humidity Indicating Type
  ,                                       ! Humidity Indicating Day Schedule Name
  DefaultMultipliers,                     ! Dry-Bulb Temperature Range Modifier Type
  ,                                       ! Dry-Bulb Temperature Range Modifier Schedule Name
  ASHRAETau,                              ! Solar Model Indicator
  ,                                       ! Beam Solar Day Schedule Name
  ,                                       ! Diffuse Solar Day Schedule Name
  0.488,                                  ! ASHRAE Taub {dimensionless}
  1.959;                                  ! ASHRAE Taud {dimensionless}

OS:ComponentData,
  {94ffef40-444f-49f6-bf7a-231c8a985750}, ! Handle
  Component Data 1,                       ! Name
  {c2f5d486-a3e0-4223-9d32-efa1238def8e}, ! UUID
  {78c08bd7-4a1b-405b-abd0-8dad1d742cf3}, ! Version UUID
  1366308546,                             ! Creation Timestamp
  1366308546,                             ! Version Timestamp
  {0f166072-3e21-4e8a-ba6c-4136617623d3}; ! Name of Object 1

