
OS:Version,
  {e24b887c-d977-4569-b4d8-ec7638478fbd}, ! Handle
  0.9.3;                                  ! Version Identifier

OS:SizingPeriod:DesignDay,
  {0a184ac0-a616-4e69-b46c-552da9368ab4}, ! Handle
  MIAMI Ann Clg 1% Condns Enth=>MDB,      ! Name
  30.3,                                   ! Maximum Dry-Bulb Temperature {C}
  6.7,                                    ! Daily Dry-Bulb Temperature Range {deltaC}
  81900,                                  ! Humidity Indicating Conditions at Maximum Dry-Bulb {BasedOnField A3}
  101301,                                 ! Barometric Pressure {Pa}
  4.5,                                    ! Wind Speed {m/s}
  140,                                    ! Wind Direction {deg}
  0,                                      ! Sky Clearness
  0,                                      ! Rain Indicator
  0,                                      ! Snow Indicator
  21,                                     ! Day of Month
  7,                                      ! Month
  SummerDesignDay,                        ! Day Type
  0,                                      ! Daylight Saving Time Indicator
  Enthalpy,                               ! Humidity Indicating Type
  ,                                       ! Humidity Indicating Day Schedule Name
  DefaultMultipliers,                     ! Dry-Bulb Temperature Range Modifier Type
  ,                                       ! Dry-Bulb Temperature Range Modifier Schedule Name
  ASHRAETau,                              ! Solar Model Indicator
  ,                                       ! Beam Solar Day Schedule Name
  ,                                       ! Diffuse Solar Day Schedule Name
  0.528,                                  ! ASHRAE Taub {dimensionless}
  1.905;                                  ! ASHRAE Taud {dimensionless}

OS:ComponentData,
  {3011d199-eeb6-4c81-b382-29056d527f60}, ! Handle
  Component Data 1,                       ! Name
  {b43256db-1807-4458-9fe2-bdc33b7a4a9a}, ! UUID
  {495a3f46-8f6b-4ba8-a6a6-09c27e7bee21}, ! Version UUID
  1366306861,                             ! Creation Timestamp
  1366306861,                             ! Version Timestamp
  {0a184ac0-a616-4e69-b46c-552da9368ab4}; ! Name of Object 1

