
OS:Version,
  {540d831d-af10-4308-859e-d2bf414849ee}, ! Handle
  0.9.3;                                  ! Version Identifier

OS:SizingPeriod:DesignDay,
  {bbb0cc61-5e20-448d-b6a2-268912f739b6}, ! Handle
  Portland Ann Clg .4% Condns Enth=>MDB,  ! Name
  30.8,                                   ! Maximum Dry-Bulb Temperature {C}
  12.2,                                   ! Daily Dry-Bulb Temperature Range {deltaC}
  59900,                                  ! Humidity Indicating Conditions at Maximum Dry-Bulb {BasedOnField A3}
  101181,                                 ! Barometric Pressure {Pa}
  4.7,                                    ! Wind Speed {m/s}
  310,                                    ! Wind Direction {deg}
  0,                                      ! Sky Clearness
  0,                                      ! Rain Indicator
  0,                                      ! Snow Indicator
  21,                                     ! Day of Month
  8,                                      ! Month
  SummerDesignDay,                        ! Day Type
  0,                                      ! Daylight Saving Time Indicator
  Enthalpy,                               ! Humidity Indicating Type
  ,                                       ! Humidity Indicating Day Schedule Name
  DefaultMultipliers,                     ! Dry-Bulb Temperature Range Modifier Type
  ,                                       ! Dry-Bulb Temperature Range Modifier Schedule Name
  ASHRAETau,                              ! Solar Model Indicator
  ,                                       ! Beam Solar Day Schedule Name
  ,                                       ! Diffuse Solar Day Schedule Name
  0.358,                                  ! ASHRAE Taub {dimensionless}
  2.549;                                  ! ASHRAE Taud {dimensionless}

OS:ComponentData,
  {ff1e412c-bdc9-4e9b-a0ac-e313a2b62666}, ! Handle
  Component Data 1,                       ! Name
  {fd0fa3bd-2cb2-4591-a872-a26fed9a8c0f}, ! UUID
  {8c7a5292-06d7-4143-8c87-b86819b7a4b1}, ! Version UUID
  1366310079,                             ! Creation Timestamp
  1366310079,                             ! Version Timestamp
  {bbb0cc61-5e20-448d-b6a2-268912f739b6}; ! Name of Object 1

