
OS:Version,
  {74cc4d10-381f-4ebe-a8fa-733c87727a7f}, ! Handle
  0.9.3;                                  ! Version Identifier

OS:SizingPeriod:DesignDay,
  {d7b01e4c-6660-43dd-aa17-fee368ee1518}, ! Handle
  Philadelphia Ne Philadelphia Ann Clg 2% Condns DP=>MDB, ! Name
  26.8,                                   ! Maximum Dry-Bulb Temperature {C}
  10.3,                                   ! Daily Dry-Bulb Temperature Range {deltaC}
  22.6,                                   ! Humidity Indicating Conditions at Maximum Dry-Bulb {BasedOnField A3}
  100965,                                 ! Barometric Pressure {Pa}
  4.4,                                    ! Wind Speed {m/s}
  300,                                    ! Wind Direction {deg}
  0,                                      ! Sky Clearness
  0,                                      ! Rain Indicator
  0,                                      ! Snow Indicator
  21,                                     ! Day of Month
  7,                                      ! Month
  SummerDesignDay,                        ! Day Type
  0,                                      ! Daylight Saving Time Indicator
  Dewpoint,                               ! Humidity Indicating Type
  ,                                       ! Humidity Indicating Day Schedule Name
  DefaultMultipliers,                     ! Dry-Bulb Temperature Range Modifier Type
  ,                                       ! Dry-Bulb Temperature Range Modifier Schedule Name
  ASHRAETau,                              ! Solar Model Indicator
  ,                                       ! Beam Solar Day Schedule Name
  ,                                       ! Diffuse Solar Day Schedule Name
  0.537,                                  ! ASHRAE Taub {dimensionless}
  1.806;                                  ! ASHRAE Taud {dimensionless}

OS:ComponentData,
  {53bd85b6-195c-416b-a50b-759f5f615e49}, ! Handle
  Component Data 1,                       ! Name
  {8864b5f5-14d6-4190-99dc-7c7f61208c13}, ! UUID
  {1abd196d-1ba3-4f1f-bbdf-b85f247251fa}, ! Version UUID
  1366310208,                             ! Creation Timestamp
  1366310208,                             ! Version Timestamp
  {d7b01e4c-6660-43dd-aa17-fee368ee1518}; ! Name of Object 1

