
OS:Version,
  {6bc28b4e-3cb0-4dbd-8cf5-15ec03db1556}, ! Handle
  0.9.3;                                  ! Version Identifier

OS:SizingPeriod:DesignDay,
  {2d3dbd78-25a5-4d83-8f2f-7b791a814f70}, ! Handle
  PRESCOTT Ann Htg 99.6% Condns DB,       ! Name
  -8.1,                                   ! Maximum Dry-Bulb Temperature {C}
  0,                                      ! Daily Dry-Bulb Temperature Range {deltaC}
  -8.1,                                   ! Humidity Indicating Conditions at Maximum Dry-Bulb {BasedOnField A3}
  84235,                                  ! Barometric Pressure {Pa}
  2.3,                                    ! Wind Speed {m/s}
  200,                                    ! Wind Direction {deg}
  0,                                      ! Sky Clearness
  0,                                      ! Rain Indicator
  0,                                      ! Snow Indicator
  21,                                     ! Day of Month
  12,                                     ! Month
  WinterDesignDay,                        ! Day Type
  0,                                      ! Daylight Saving Time Indicator
  Wetbulb,                                ! Humidity Indicating Type
  ,                                       ! Humidity Indicating Day Schedule Name
  DefaultMultipliers,                     ! Dry-Bulb Temperature Range Modifier Type
  ,                                       ! Dry-Bulb Temperature Range Modifier Schedule Name
  ASHRAEClearSky;                         ! Solar Model Indicator

OS:ComponentData,
  {4f6b3591-5a2b-4ed7-984d-a7a43dea7fdb}, ! Handle
  Component Data 1,                       ! Name
  {c8178804-70cd-4c64-a9d1-ea40c0e652d3}, ! UUID
  {2a4acf50-d480-45aa-a402-96abd329f3e3}, ! Version UUID
  1366306306,                             ! Creation Timestamp
  1366306306,                             ! Version Timestamp
  {2d3dbd78-25a5-4d83-8f2f-7b791a814f70}; ! Name of Object 1

