
OS:Version,
  {ce8cd199-ce87-47b8-b3e4-98e9eb363777}, ! Handle
  0.9.3;                                  ! Version Identifier

OS:SizingPeriod:DesignDay,
  {88f43fd0-6ab7-49f7-8885-6a9f25f2593d}, ! Handle
  Wendover Usaf Auxiliary Field Ann Clg 2% Condns WB=>MDB, ! Name
  29.1,                                   ! Maximum Dry-Bulb Temperature {C}
  12.6,                                   ! Daily Dry-Bulb Temperature Range {deltaC}
  16.6,                                   ! Humidity Indicating Conditions at Maximum Dry-Bulb {BasedOnField A3}
  86747,                                  ! Barometric Pressure {Pa}
  5.1,                                    ! Wind Speed {m/s}
  120,                                    ! Wind Direction {deg}
  0,                                      ! Sky Clearness
  0,                                      ! Rain Indicator
  0,                                      ! Snow Indicator
  21,                                     ! Day of Month
  7,                                      ! Month
  SummerDesignDay,                        ! Day Type
  0,                                      ! Daylight Saving Time Indicator
  Wetbulb,                                ! Humidity Indicating Type
  ,                                       ! Humidity Indicating Day Schedule Name
  DefaultMultipliers,                     ! Dry-Bulb Temperature Range Modifier Type
  ,                                       ! Dry-Bulb Temperature Range Modifier Schedule Name
  ASHRAETau,                              ! Solar Model Indicator
  ,                                       ! Beam Solar Day Schedule Name
  ,                                       ! Diffuse Solar Day Schedule Name
  0.474,                                  ! ASHRAE Taub {dimensionless}
  1.796;                                  ! ASHRAE Taud {dimensionless}

