
OS:Version,
  {83c0c670-07da-4167-b8b2-52b2d9ab592f}, ! Handle
  0.9.3;                                  ! Version Identifier

OS:SizingPeriod:DesignDay,
  {0b643f57-ed19-4a39-839e-1b4ec5f71bab}, ! Handle
  Republic Ann Clg .4% Condns Enth=>MDB,  ! Name
  29.3,                                   ! Maximum Dry-Bulb Temperature {C}
  8,                                      ! Daily Dry-Bulb Temperature Range {deltaC}
  75800,                                  ! Humidity Indicating Conditions at Maximum Dry-Bulb {BasedOnField A3}
  101013,                                 ! Barometric Pressure {Pa}
  5.5,                                    ! Wind Speed {m/s}
  210,                                    ! Wind Direction {deg}
  0,                                      ! Sky Clearness
  0,                                      ! Rain Indicator
  0,                                      ! Snow Indicator
  21,                                     ! Day of Month
  7,                                      ! Month
  SummerDesignDay,                        ! Day Type
  0,                                      ! Daylight Saving Time Indicator
  Enthalpy,                               ! Humidity Indicating Type
  ,                                       ! Humidity Indicating Day Schedule Name
  DefaultMultipliers,                     ! Dry-Bulb Temperature Range Modifier Type
  ,                                       ! Dry-Bulb Temperature Range Modifier Schedule Name
  ASHRAETau,                              ! Solar Model Indicator
  ,                                       ! Beam Solar Day Schedule Name
  ,                                       ! Diffuse Solar Day Schedule Name
  0.541,                                  ! ASHRAE Taub {dimensionless}
  1.799;                                  ! ASHRAE Taud {dimensionless}

OS:ComponentData,
  {98b60b09-5c9a-4ae3-964a-cef1ee9c2ffb}, ! Handle
  Component Data 1,                       ! Name
  {6a4bf828-005e-44e9-bb26-1ac3103677da}, ! UUID
  {cceaa800-3bb4-4788-a21e-36a54e83f27a}, ! Version UUID
  1366309710,                             ! Creation Timestamp
  1366309710,                             ! Version Timestamp
  {0b643f57-ed19-4a39-839e-1b4ec5f71bab}; ! Name of Object 1

