
OS:Version,
  {8c48bcf3-fa76-4108-8ac3-3e17cef4f5a2}, ! Handle
  0.9.3;                                  ! Version Identifier

OS:SizingPeriod:DesignDay,
  {9630cf7e-6e93-49c1-8fc0-dc6d8b15670f}, ! Handle
  Saint George  Awos Ann Clg 2% Condns DB=>MWB, ! Name
  38,                                     ! Maximum Dry-Bulb Temperature {C}
  14.3,                                   ! Daily Dry-Bulb Temperature Range {deltaC}
  17.8,                                   ! Humidity Indicating Conditions at Maximum Dry-Bulb {BasedOnField A3}
  91014,                                  ! Barometric Pressure {Pa}
  6.6,                                    ! Wind Speed {m/s}
  250,                                    ! Wind Direction {deg}
  0,                                      ! Sky Clearness
  0,                                      ! Rain Indicator
  0,                                      ! Snow Indicator
  21,                                     ! Day of Month
  7,                                      ! Month
  SummerDesignDay,                        ! Day Type
  0,                                      ! Daylight Saving Time Indicator
  Wetbulb,                                ! Humidity Indicating Type
  ,                                       ! Humidity Indicating Day Schedule Name
  DefaultMultipliers,                     ! Dry-Bulb Temperature Range Modifier Type
  ,                                       ! Dry-Bulb Temperature Range Modifier Schedule Name
  ASHRAETau,                              ! Solar Model Indicator
  ,                                       ! Beam Solar Day Schedule Name
  ,                                       ! Diffuse Solar Day Schedule Name
  0.485,                                  ! ASHRAE Taub {dimensionless}
  1.844;                                  ! ASHRAE Taud {dimensionless}

OS:ComponentData,
  {206cb3d9-f381-42d3-af8e-9bf287fd8500}, ! Handle
  Component Data 1,                       ! Name
  {d25a9039-1484-4bb5-b49b-663ac4367cd7}, ! UUID
  {95bd5f1f-7d25-4e42-b488-f19538e919e4}, ! Version UUID
  1366310983,                             ! Creation Timestamp
  1366310983,                             ! Version Timestamp
  {9630cf7e-6e93-49c1-8fc0-dc6d8b15670f}; ! Name of Object 1

