
OS:Version,
  {b078fdef-52e1-45e6-8deb-b6199a01be9c}, ! Handle
  0.9.3;                                  ! Version Identifier

OS:SizingPeriod:DesignDay,
  {afa4a545-1356-4116-b5c0-e0bdbeeda9d7}, ! Handle
  Vernal Ann Clg 2% Condns Enth=>MDB,     ! Name
  27.4,                                   ! Maximum Dry-Bulb Temperature {C}
  17.6,                                   ! Daily Dry-Bulb Temperature Range {deltaC}
  52600,                                  ! Humidity Indicating Conditions at Maximum Dry-Bulb {BasedOnField A3}
  83441,                                  ! Barometric Pressure {Pa}
  3.2,                                    ! Wind Speed {m/s}
  240,                                    ! Wind Direction {deg}
  0,                                      ! Sky Clearness
  0,                                      ! Rain Indicator
  0,                                      ! Snow Indicator
  21,                                     ! Day of Month
  7,                                      ! Month
  SummerDesignDay,                        ! Day Type
  0,                                      ! Daylight Saving Time Indicator
  Enthalpy,                               ! Humidity Indicating Type
  ,                                       ! Humidity Indicating Day Schedule Name
  DefaultMultipliers,                     ! Dry-Bulb Temperature Range Modifier Type
  ,                                       ! Dry-Bulb Temperature Range Modifier Schedule Name
  ASHRAETau,                              ! Solar Model Indicator
  ,                                       ! Beam Solar Day Schedule Name
  ,                                       ! Diffuse Solar Day Schedule Name
  0.396,                                  ! ASHRAE Taub {dimensionless}
  2.103;                                  ! ASHRAE Taud {dimensionless}

