
OS:Version,
  {f2c8e923-348c-406a-b217-bdbc343a9e18}, ! Handle
  0.9.3;                                  ! Version Identifier

OS:SizingPeriod:DesignDay,
  {c08b9f06-adcb-498c-9c30-2a673e2832e5}, ! Handle
  Norfolk Karl Stefan Mem Arpt Ann Hum_n 99% Condns DP=>MCDB, ! Name
  -18.7,                                  ! Maximum Dry-Bulb Temperature {C}
  0,                                      ! Daily Dry-Bulb Temperature Range {deltaC}
  -23.7,                                  ! Humidity Indicating Conditions at Maximum Dry-Bulb {BasedOnField A3}
  95782,                                  ! Barometric Pressure {Pa}
  4.9,                                    ! Wind Speed {m/s}
  320,                                    ! Wind Direction {deg}
  0,                                      ! Sky Clearness
  0,                                      ! Rain Indicator
  0,                                      ! Snow Indicator
  21,                                     ! Day of Month
  1,                                      ! Month
  WinterDesignDay,                        ! Day Type
  0,                                      ! Daylight Saving Time Indicator
  Dewpoint,                               ! Humidity Indicating Type
  ,                                       ! Humidity Indicating Day Schedule Name
  DefaultMultipliers,                     ! Dry-Bulb Temperature Range Modifier Type
  ,                                       ! Dry-Bulb Temperature Range Modifier Schedule Name
  ASHRAEClearSky;                         ! Solar Model Indicator

OS:ComponentData,
  {8802674b-6be4-493c-a298-9ef8e1a0a93e}, ! Handle
  Component Data 1,                       ! Name
  {9d8f2f82-d8b4-45da-919b-c47f7c3b17b8}, ! UUID
  {48ec9722-89b8-4e52-8129-138c9f577655}, ! Version UUID
  1366309148,                             ! Creation Timestamp
  1366309148,                             ! Version Timestamp
  {c08b9f06-adcb-498c-9c30-2a673e2832e5}; ! Name of Object 1

