
OS:Version,
  {9805431d-4a8a-4fe3-bed6-1f9da879b28a}, ! Handle
  0.9.3;                                  ! Version Identifier

OS:SizingPeriod:DesignDay,
  {df8a633b-eb87-4724-a772-e415ebbb11c2}, ! Handle
  Pittsburgh International Ap Ann Clg 2% Condns Enth=>MDB, ! Name
  27,                                     ! Maximum Dry-Bulb Temperature {C}
  10.3,                                   ! Daily Dry-Bulb Temperature Range {deltaC}
  67400,                                  ! Humidity Indicating Conditions at Maximum Dry-Bulb {BasedOnField A3}
  97190,                                  ! Barometric Pressure {Pa}
  4.5,                                    ! Wind Speed {m/s}
  220,                                    ! Wind Direction {deg}
  0,                                      ! Sky Clearness
  0,                                      ! Rain Indicator
  0,                                      ! Snow Indicator
  21,                                     ! Day of Month
  7,                                      ! Month
  SummerDesignDay,                        ! Day Type
  0,                                      ! Daylight Saving Time Indicator
  Enthalpy,                               ! Humidity Indicating Type
  ,                                       ! Humidity Indicating Day Schedule Name
  DefaultMultipliers,                     ! Dry-Bulb Temperature Range Modifier Type
  ,                                       ! Dry-Bulb Temperature Range Modifier Schedule Name
  ASHRAETau,                              ! Solar Model Indicator
  ,                                       ! Beam Solar Day Schedule Name
  ,                                       ! Diffuse Solar Day Schedule Name
  0.479,                                  ! ASHRAE Taub {dimensionless}
  1.937;                                  ! ASHRAE Taud {dimensionless}

OS:ComponentData,
  {24bc5205-dd30-42f7-9f6e-038629a7b53f}, ! Handle
  Component Data 1,                       ! Name
  {247f9fd4-c54b-4470-a3a1-7392ea111e71}, ! UUID
  {c7aacdd9-0ee9-43b6-92c2-a3eff229eff8}, ! Version UUID
  1366310248,                             ! Creation Timestamp
  1366310248,                             ! Version Timestamp
  {df8a633b-eb87-4724-a772-e415ebbb11c2}; ! Name of Object 1

