
OS:Version,
  {bd6954c9-2483-4798-ab31-8925408e68d0}, ! Handle
  0.9.3;                                  ! Version Identifier

OS:SizingPeriod:DesignDay,
  {2463ef75-746b-4387-948d-2f8e4de97cbf}, ! Handle
  Meridian Ann Htg Wind 99.6% Condns WS=>MCDB, ! Name
  13.5,                                   ! Maximum Dry-Bulb Temperature {C}
  0,                                      ! Daily Dry-Bulb Temperature Range {deltaC}
  13.5,                                   ! Humidity Indicating Conditions at Maximum Dry-Bulb {BasedOnField A3}
  100201,                                 ! Barometric Pressure {Pa}
  9.4,                                    ! Wind Speed {m/s}
  0,                                      ! Wind Direction {deg}
  0,                                      ! Sky Clearness
  0,                                      ! Rain Indicator
  0,                                      ! Snow Indicator
  21,                                     ! Day of Month
  1,                                      ! Month
  WinterDesignDay,                        ! Day Type
  0,                                      ! Daylight Saving Time Indicator
  Wetbulb,                                ! Humidity Indicating Type
  ,                                       ! Humidity Indicating Day Schedule Name
  DefaultMultipliers,                     ! Dry-Bulb Temperature Range Modifier Type
  ,                                       ! Dry-Bulb Temperature Range Modifier Schedule Name
  ASHRAEClearSky;                         ! Solar Model Indicator

OS:ComponentData,
  {33d46940-4318-43fb-869d-7bda9e4a1df3}, ! Handle
  Component Data 1,                       ! Name
  {81c2baff-fc41-4fbc-9231-416c6449f19b}, ! UUID
  {e51f810c-9a1e-4a13-8ad2-cf267224b65c}, ! Version UUID
  1366308660,                             ! Creation Timestamp
  1366308660,                             ! Version Timestamp
  {2463ef75-746b-4387-948d-2f8e4de97cbf}; ! Name of Object 1

