
OS:Version,
  {f8ff0012-45bb-4d9f-ae27-b83a2bf0f50d}, ! Handle
  0.9.3;                                  ! Version Identifier

OS:SizingPeriod:DesignDay,
  {88802c3e-d05a-40ff-afb5-92429362ef30}, ! Handle
  Pensacola Forest Sherman Nas Ann Clg 2% Condns Enth=>MDB, ! Name
  30.2,                                   ! Maximum Dry-Bulb Temperature {C}
  8.3,                                    ! Daily Dry-Bulb Temperature Range {deltaC}
  82100,                                  ! Humidity Indicating Conditions at Maximum Dry-Bulb {BasedOnField A3}
  101205,                                 ! Barometric Pressure {Pa}
  4.5,                                    ! Wind Speed {m/s}
  210,                                    ! Wind Direction {deg}
  0,                                      ! Sky Clearness
  0,                                      ! Rain Indicator
  0,                                      ! Snow Indicator
  21,                                     ! Day of Month
  7,                                      ! Month
  SummerDesignDay,                        ! Day Type
  0,                                      ! Daylight Saving Time Indicator
  Enthalpy,                               ! Humidity Indicating Type
  ,                                       ! Humidity Indicating Day Schedule Name
  DefaultMultipliers,                     ! Dry-Bulb Temperature Range Modifier Type
  ,                                       ! Dry-Bulb Temperature Range Modifier Schedule Name
  ASHRAETau,                              ! Solar Model Indicator
  ,                                       ! Beam Solar Day Schedule Name
  ,                                       ! Diffuse Solar Day Schedule Name
  0.531,                                  ! ASHRAE Taub {dimensionless}
  1.898;                                  ! ASHRAE Taud {dimensionless}

OS:ComponentData,
  {3bd7c879-b663-43b9-81a9-908b2fee8e42}, ! Handle
  Component Data 1,                       ! Name
  {b5c1bd59-b013-4734-b4c4-f0fe653506a3}, ! UUID
  {e4f96531-79c7-4f33-8a9a-d706505e2087}, ! Version UUID
  1366306903,                             ! Creation Timestamp
  1366306903,                             ! Version Timestamp
  {88802c3e-d05a-40ff-afb5-92429362ef30}; ! Name of Object 1

