
OS:Version,
  {482ceecb-8b5f-4275-9d1a-47fb045f683f}, ! Handle
  0.9.3;                                  ! Version Identifier

OS:SizingPeriod:DesignDay,
  {101a67ca-5340-4287-a6c1-9ed1c43d7d85}, ! Handle
  Vernal Ann Htg Wind 99% Condns WS=>MCDB, ! Name
  0.1,                                    ! Maximum Dry-Bulb Temperature {C}
  0,                                      ! Daily Dry-Bulb Temperature Range {deltaC}
  0.1,                                    ! Humidity Indicating Conditions at Maximum Dry-Bulb {BasedOnField A3}
  83441,                                  ! Barometric Pressure {Pa}
  7.2,                                    ! Wind Speed {m/s}
  290,                                    ! Wind Direction {deg}
  0,                                      ! Sky Clearness
  0,                                      ! Rain Indicator
  0,                                      ! Snow Indicator
  21,                                     ! Day of Month
  12,                                     ! Month
  WinterDesignDay,                        ! Day Type
  0,                                      ! Daylight Saving Time Indicator
  Wetbulb,                                ! Humidity Indicating Type
  ,                                       ! Humidity Indicating Day Schedule Name
  DefaultMultipliers,                     ! Dry-Bulb Temperature Range Modifier Type
  ,                                       ! Dry-Bulb Temperature Range Modifier Schedule Name
  ASHRAEClearSky;                         ! Solar Model Indicator

OS:ComponentData,
  {f13142c3-7aa2-420e-a5ba-79fdfbdea91d}, ! Handle
  Component Data 1,                       ! Name
  {42f23f9c-ef36-4a11-918d-deeb894b1d36}, ! UUID
  {4867c6b2-69b1-4dd7-9e99-e765891db297}, ! Version UUID
  1366311003,                             ! Creation Timestamp
  1366311003,                             ! Version Timestamp
  {101a67ca-5340-4287-a6c1-9ed1c43d7d85}; ! Name of Object 1

