
OS:Version,
  {0dd8893f-7bdc-40a8-b292-e0a5545e4be6}, ! Handle
  0.9.3;                                  ! Version Identifier

OS:SizingPeriod:DesignDay,
  {29cf4701-952c-4fab-bed5-8f20870da12d}, ! Handle
  McGrath Ann Clg .4% Condns Enth=>MDB,   ! Name
  22.9,                                   ! Maximum Dry-Bulb Temperature {C}
  9.7,                                    ! Daily Dry-Bulb Temperature Range {deltaC}
  47700,                                  ! Humidity Indicating Conditions at Maximum Dry-Bulb {BasedOnField A3}
  100094,                                 ! Barometric Pressure {Pa}
  3.2,                                    ! Wind Speed {m/s}
  0,                                      ! Wind Direction {deg}
  0,                                      ! Sky Clearness
  0,                                      ! Rain Indicator
  0,                                      ! Snow Indicator
  21,                                     ! Day of Month
  7,                                      ! Month
  SummerDesignDay,                        ! Day Type
  0,                                      ! Daylight Saving Time Indicator
  Enthalpy,                               ! Humidity Indicating Type
  ,                                       ! Humidity Indicating Day Schedule Name
  DefaultMultipliers,                     ! Dry-Bulb Temperature Range Modifier Type
  ,                                       ! Dry-Bulb Temperature Range Modifier Schedule Name
  ASHRAETau,                              ! Solar Model Indicator
  ,                                       ! Beam Solar Day Schedule Name
  ,                                       ! Diffuse Solar Day Schedule Name
  0.388,                                  ! ASHRAE Taub {dimensionless}
  2.208;                                  ! ASHRAE Taud {dimensionless}

OS:ComponentData,
  {fc79ab20-d5dd-4230-8164-6f905cd3f67c}, ! Handle
  Component Data 1,                       ! Name
  {f265dbf2-4f52-4ab4-a5a2-a6c4d4d099bf}, ! UUID
  {3068cef1-69dd-4142-b6a0-4bcd163b44ba}, ! Version UUID
  1366305413,                             ! Creation Timestamp
  1366305413,                             ! Version Timestamp
  {29cf4701-952c-4fab-bed5-8f20870da12d}; ! Name of Object 1

