
OS:Version,
  {6df87c81-7ad8-42d0-ae2a-23c0b7904f34}, ! Handle
  0.9.3;                                  ! Version Identifier

OS:SizingPeriod:DesignDay,
  {93126689-3ca8-4667-af89-f5bf049440e1}, ! Handle
  St Louis Spirit Of St Louis A Ann Clg 1% Condns DP=>MDB, ! Name
  29,                                     ! Maximum Dry-Bulb Temperature {C}
  11.1,                                   ! Daily Dry-Bulb Temperature Range {deltaC}
  24,                                     ! Humidity Indicating Conditions at Maximum Dry-Bulb {BasedOnField A3}
  99643,                                  ! Barometric Pressure {Pa}
  4.1,                                    ! Wind Speed {m/s}
  220,                                    ! Wind Direction {deg}
  0,                                      ! Sky Clearness
  0,                                      ! Rain Indicator
  0,                                      ! Snow Indicator
  21,                                     ! Day of Month
  7,                                      ! Month
  SummerDesignDay,                        ! Day Type
  0,                                      ! Daylight Saving Time Indicator
  Dewpoint,                               ! Humidity Indicating Type
  ,                                       ! Humidity Indicating Day Schedule Name
  DefaultMultipliers,                     ! Dry-Bulb Temperature Range Modifier Type
  ,                                       ! Dry-Bulb Temperature Range Modifier Schedule Name
  ASHRAETau,                              ! Solar Model Indicator
  ,                                       ! Beam Solar Day Schedule Name
  ,                                       ! Diffuse Solar Day Schedule Name
  0.475,                                  ! ASHRAE Taub {dimensionless}
  1.999;                                  ! ASHRAE Taud {dimensionless}

OS:ComponentData,
  {82338ad6-cb56-422d-a87d-03718fc46d90}, ! Handle
  Component Data 1,                       ! Name
  {76668b3b-ddf9-47e8-87e2-57d800d76a6b}, ! UUID
  {0e38f1ea-a2f0-48ed-bad1-448e1f7bcada}, ! Version UUID
  1366308591,                             ! Creation Timestamp
  1366308591,                             ! Version Timestamp
  {93126689-3ca8-4667-af89-f5bf049440e1}; ! Name of Object 1

