
OS:Version,
  {e07c5fb8-4840-446d-8f23-73b56b3c4953}, ! Handle
  0.9.3;                                  ! Version Identifier

OS:SizingPeriod:DesignDay,
  {c7c0eaa7-87d2-4958-be02-6fe6196b4925}, ! Handle
  Stuttgart  Awos Ann Clg 2% Condns Enth=>MDB, ! Name
  31.8,                                   ! Maximum Dry-Bulb Temperature {C}
  9.6,                                    ! Daily Dry-Bulb Temperature Range {deltaC}
  79300,                                  ! Humidity Indicating Conditions at Maximum Dry-Bulb {BasedOnField A3}
  100511,                                 ! Barometric Pressure {Pa}
  3.7,                                    ! Wind Speed {m/s}
  220,                                    ! Wind Direction {deg}
  0,                                      ! Sky Clearness
  0,                                      ! Rain Indicator
  0,                                      ! Snow Indicator
  21,                                     ! Day of Month
  7,                                      ! Month
  SummerDesignDay,                        ! Day Type
  0,                                      ! Daylight Saving Time Indicator
  Enthalpy,                               ! Humidity Indicating Type
  ,                                       ! Humidity Indicating Day Schedule Name
  DefaultMultipliers,                     ! Dry-Bulb Temperature Range Modifier Type
  ,                                       ! Dry-Bulb Temperature Range Modifier Schedule Name
  ASHRAETau,                              ! Solar Model Indicator
  ,                                       ! Beam Solar Day Schedule Name
  ,                                       ! Diffuse Solar Day Schedule Name
  0.515,                                  ! ASHRAE Taub {dimensionless}
  1.894;                                  ! ASHRAE Taud {dimensionless}

OS:ComponentData,
  {08a73e4f-6358-4912-8378-ec8a3ca64652}, ! Handle
  Component Data 1,                       ! Name
  {cfb2349b-24e4-4f36-a97b-1779ddb0aa0f}, ! UUID
  {536a3d81-14ea-4f89-9e40-3c2672cd0b9f}, ! Version UUID
  1366306251,                             ! Creation Timestamp
  1366306251,                             ! Version Timestamp
  {c7c0eaa7-87d2-4958-be02-6fe6196b4925}; ! Name of Object 1

