
OS:Version,
  {1b5f7cf0-8f79-4180-8346-4e4e791c8cd6}, ! Handle
  0.9.3;                                  ! Version Identifier

OS:SizingPeriod:DesignDay,
  {32f89b44-a905-4334-9b54-82d4c4d60dec}, ! Handle
  Wichita Col  Jabara Ann Clg 1% Condns WB=>MDB, ! Name
  32,                                     ! Maximum Dry-Bulb Temperature {C}
  12,                                     ! Daily Dry-Bulb Temperature Range {deltaC}
  24.6,                                   ! Humidity Indicating Conditions at Maximum Dry-Bulb {BasedOnField A3}
  96230,                                  ! Barometric Pressure {Pa}
  6.2,                                    ! Wind Speed {m/s}
  180,                                    ! Wind Direction {deg}
  0,                                      ! Sky Clearness
  0,                                      ! Rain Indicator
  0,                                      ! Snow Indicator
  21,                                     ! Day of Month
  7,                                      ! Month
  SummerDesignDay,                        ! Day Type
  0,                                      ! Daylight Saving Time Indicator
  Wetbulb,                                ! Humidity Indicating Type
  ,                                       ! Humidity Indicating Day Schedule Name
  DefaultMultipliers,                     ! Dry-Bulb Temperature Range Modifier Type
  ,                                       ! Dry-Bulb Temperature Range Modifier Schedule Name
  ASHRAETau,                              ! Solar Model Indicator
  ,                                       ! Beam Solar Day Schedule Name
  ,                                       ! Diffuse Solar Day Schedule Name
  0.418,                                  ! ASHRAE Taub {dimensionless}
  2.21;                                   ! ASHRAE Taud {dimensionless}

OS:ComponentData,
  {88d5d086-a296-448a-ba11-865ad05766dc}, ! Handle
  Component Data 1,                       ! Name
  {8c1cacb2-b2c1-4dbd-ac15-742ce2f07edc}, ! UUID
  {22ebb2f4-79c7-4947-b8b3-08ef11d65270}, ! Version UUID
  1366307596,                             ! Creation Timestamp
  1366307596,                             ! Version Timestamp
  {32f89b44-a905-4334-9b54-82d4c4d60dec}; ! Name of Object 1

