
OS:Version,
  {8bb4c3e4-2dab-4a72-a303-18cc1173ba01}, ! Handle
  0.9.3;                                  ! Version Identifier

OS:SizingPeriod:DesignDay,
  {a984147a-c29a-4919-bf2c-609e40728573}, ! Handle
  SALT_LAKE Ann Hum_n 99% Condns DP=>MCDB, ! Name
  -7.5,                                   ! Maximum Dry-Bulb Temperature {C}
  0,                                      ! Daily Dry-Bulb Temperature Range {deltaC}
  -13.6,                                  ! Humidity Indicating Conditions at Maximum Dry-Bulb {BasedOnField A3}
  86779,                                  ! Barometric Pressure {Pa}
  2.8,                                    ! Wind Speed {m/s}
  150,                                    ! Wind Direction {deg}
  0,                                      ! Sky Clearness
  0,                                      ! Rain Indicator
  0,                                      ! Snow Indicator
  21,                                     ! Day of Month
  1,                                      ! Month
  WinterDesignDay,                        ! Day Type
  0,                                      ! Daylight Saving Time Indicator
  Dewpoint,                               ! Humidity Indicating Type
  ,                                       ! Humidity Indicating Day Schedule Name
  DefaultMultipliers,                     ! Dry-Bulb Temperature Range Modifier Type
  ,                                       ! Dry-Bulb Temperature Range Modifier Schedule Name
  ASHRAEClearSky;                         ! Solar Model Indicator

OS:ComponentData,
  {a78dd930-2e56-4bb3-bbb8-75b67cc9e91a}, ! Handle
  Component Data 1,                       ! Name
  {f60d97d2-ee8d-4939-99c0-182e576dc842}, ! UUID
  {1f11906c-726d-4791-9ee2-8a29319cda96}, ! Version UUID
  1366310988,                             ! Creation Timestamp
  1366310988,                             ! Version Timestamp
  {a984147a-c29a-4919-bf2c-609e40728573}; ! Name of Object 1

