
OS:Version,
  {37247abd-346a-48b8-9fae-515f80bfb194}, ! Handle
  0.9.3;                                  ! Version Identifier

OS:SizingPeriod:DesignDay,
  {564e9d28-4792-4106-8f71-e5aca2ec5ccc}, ! Handle
  Saint George  Awos Ann Clg .4% Condns Enth=>MDB, ! Name
  34,                                     ! Maximum Dry-Bulb Temperature {C}
  14.3,                                   ! Daily Dry-Bulb Temperature Range {deltaC}
  62500,                                  ! Humidity Indicating Conditions at Maximum Dry-Bulb {BasedOnField A3}
  91014,                                  ! Barometric Pressure {Pa}
  6.6,                                    ! Wind Speed {m/s}
  250,                                    ! Wind Direction {deg}
  0,                                      ! Sky Clearness
  0,                                      ! Rain Indicator
  0,                                      ! Snow Indicator
  21,                                     ! Day of Month
  7,                                      ! Month
  SummerDesignDay,                        ! Day Type
  0,                                      ! Daylight Saving Time Indicator
  Enthalpy,                               ! Humidity Indicating Type
  ,                                       ! Humidity Indicating Day Schedule Name
  DefaultMultipliers,                     ! Dry-Bulb Temperature Range Modifier Type
  ,                                       ! Dry-Bulb Temperature Range Modifier Schedule Name
  ASHRAETau,                              ! Solar Model Indicator
  ,                                       ! Beam Solar Day Schedule Name
  ,                                       ! Diffuse Solar Day Schedule Name
  0.485,                                  ! ASHRAE Taub {dimensionless}
  1.844;                                  ! ASHRAE Taud {dimensionless}

OS:ComponentData,
  {a67d98ef-179c-4a47-b1f4-2660c242f009}, ! Handle
  Component Data 1,                       ! Name
  {3b65aeb8-be7e-4bac-a9d0-b00f87a2fd14}, ! UUID
  {5cceb209-f8c4-4b7f-9cf0-99128c9bdbb6}, ! Version UUID
  1366310984,                             ! Creation Timestamp
  1366310984,                             ! Version Timestamp
  {564e9d28-4792-4106-8f71-e5aca2ec5ccc}; ! Name of Object 1

