
OS:Version,
  {8fad7908-fc53-412c-9dd5-0a5863674b5f}, ! Handle
  0.9.3;                                  ! Version Identifier

OS:SizingPeriod:DesignDay,
  {2cf262c8-fa7c-446e-9ac7-7c45dc3cd3e8}, ! Handle
  McGrath Ann Clg 2% Condns DP=>MDB,      ! Name
  16.6,                                   ! Maximum Dry-Bulb Temperature {C}
  9.7,                                    ! Daily Dry-Bulb Temperature Range {deltaC}
  12.8,                                   ! Humidity Indicating Conditions at Maximum Dry-Bulb {BasedOnField A3}
  100094,                                 ! Barometric Pressure {Pa}
  3.2,                                    ! Wind Speed {m/s}
  0,                                      ! Wind Direction {deg}
  0,                                      ! Sky Clearness
  0,                                      ! Rain Indicator
  0,                                      ! Snow Indicator
  21,                                     ! Day of Month
  7,                                      ! Month
  SummerDesignDay,                        ! Day Type
  0,                                      ! Daylight Saving Time Indicator
  Dewpoint,                               ! Humidity Indicating Type
  ,                                       ! Humidity Indicating Day Schedule Name
  DefaultMultipliers,                     ! Dry-Bulb Temperature Range Modifier Type
  ,                                       ! Dry-Bulb Temperature Range Modifier Schedule Name
  ASHRAETau,                              ! Solar Model Indicator
  ,                                       ! Beam Solar Day Schedule Name
  ,                                       ! Diffuse Solar Day Schedule Name
  0.388,                                  ! ASHRAE Taub {dimensionless}
  2.208;                                  ! ASHRAE Taud {dimensionless}

OS:ComponentData,
  {70a9de47-5ad6-4887-97bc-ecda239ac819}, ! Handle
  Component Data 1,                       ! Name
  {469857f9-cf4e-4021-a905-95b882008a05}, ! UUID
  {1a87eac6-7828-4d87-b7cf-e5fc21f1a369}, ! Version UUID
  1366305412,                             ! Creation Timestamp
  1366305412,                             ! Version Timestamp
  {2cf262c8-fa7c-446e-9ac7-7c45dc3cd3e8}; ! Name of Object 1

