
OS:Version,
  {1efa2fbe-67e9-4f02-8525-f53c3a8d5ecc}, ! Handle
  0.9.3;                                  ! Version Identifier

OS:SizingPeriod:DesignDay,
  {cdbeb89d-87ce-4540-9d0c-e8f2c11ff32b}, ! Handle
  Memphis International Ap Ann Clg 1% Condns DP=>MDB, ! Name
  29.4,                                   ! Maximum Dry-Bulb Temperature {C}
  9.2,                                    ! Daily Dry-Bulb Temperature Range {deltaC}
  24.6,                                   ! Humidity Indicating Conditions at Maximum Dry-Bulb {BasedOnField A3}
  100356,                                 ! Barometric Pressure {Pa}
  3.8,                                    ! Wind Speed {m/s}
  240,                                    ! Wind Direction {deg}
  0,                                      ! Sky Clearness
  0,                                      ! Rain Indicator
  0,                                      ! Snow Indicator
  21,                                     ! Day of Month
  7,                                      ! Month
  SummerDesignDay,                        ! Day Type
  0,                                      ! Daylight Saving Time Indicator
  Dewpoint,                               ! Humidity Indicating Type
  ,                                       ! Humidity Indicating Day Schedule Name
  DefaultMultipliers,                     ! Dry-Bulb Temperature Range Modifier Type
  ,                                       ! Dry-Bulb Temperature Range Modifier Schedule Name
  ASHRAETau,                              ! Solar Model Indicator
  ,                                       ! Beam Solar Day Schedule Name
  ,                                       ! Diffuse Solar Day Schedule Name
  0.512,                                  ! ASHRAE Taub {dimensionless}
  1.892;                                  ! ASHRAE Taud {dimensionless}

OS:ComponentData,
  {909968cc-7551-403e-9330-c37cf935a07d}, ! Handle
  Component Data 1,                       ! Name
  {0a5fbc3a-751f-4907-9292-522c83b75237}, ! UUID
  {b5f43c28-60dd-4720-9d86-537b47d6d040}, ! Version UUID
  1366310530,                             ! Creation Timestamp
  1366310530,                             ! Version Timestamp
  {cdbeb89d-87ce-4540-9d0c-e8f2c11ff32b}; ! Name of Object 1

