
OS:Version,
  {26749fa5-755f-4d99-8c48-df50c23ed779}, ! Handle
  0.9.3;                                  ! Version Identifier

OS:SizingPeriod:DesignDay,
  {921a3613-af83-4dda-a444-c58fddb23dd6}, ! Handle
  Wilmington New Castle Cnty Ap Ann Hum_n 99% Condns DP=>MCDB, ! Name
  -7.2,                                   ! Maximum Dry-Bulb Temperature {C}
  0,                                      ! Daily Dry-Bulb Temperature Range {deltaC}
  -17.3,                                  ! Humidity Indicating Conditions at Maximum Dry-Bulb {BasedOnField A3}
  101049,                                 ! Barometric Pressure {Pa}
  4.6,                                    ! Wind Speed {m/s}
  310,                                    ! Wind Direction {deg}
  0,                                      ! Sky Clearness
  0,                                      ! Rain Indicator
  0,                                      ! Snow Indicator
  21,                                     ! Day of Month
  1,                                      ! Month
  WinterDesignDay,                        ! Day Type
  0,                                      ! Daylight Saving Time Indicator
  Dewpoint,                               ! Humidity Indicating Type
  ,                                       ! Humidity Indicating Day Schedule Name
  DefaultMultipliers,                     ! Dry-Bulb Temperature Range Modifier Type
  ,                                       ! Dry-Bulb Temperature Range Modifier Schedule Name
  ASHRAEClearSky;                         ! Solar Model Indicator

OS:ComponentData,
  {6b2c9928-d7cd-4fa1-972c-a11b89ce4d5d}, ! Handle
  Component Data 1,                       ! Name
  {105e65ce-6653-48d8-9231-58b7a866f5ce}, ! UUID
  {40efe161-22e9-43bf-84bc-3af6d52c166b}, ! Version UUID
  1366306776,                             ! Creation Timestamp
  1366306776,                             ! Version Timestamp
  {921a3613-af83-4dda-a444-c58fddb23dd6}; ! Name of Object 1

