
OS:Version,
  {53d6beb2-1c30-4f77-925a-df9dc7b0448e}, ! Handle
  0.9.3;                                  ! Version Identifier

OS:SizingPeriod:DesignDay,
  {827cece9-ae19-492f-bfb1-5bfb776d81f4}, ! Handle
  Palm Springs Intl Ann Clg 2% Condns WB=>MDB, ! Name
  36.9,                                   ! Maximum Dry-Bulb Temperature {C}
  14.7,                                   ! Daily Dry-Bulb Temperature Range {deltaC}
  24.8,                                   ! Humidity Indicating Conditions at Maximum Dry-Bulb {BasedOnField A3}
  99595,                                  ! Barometric Pressure {Pa}
  4.7,                                    ! Wind Speed {m/s}
  320,                                    ! Wind Direction {deg}
  0,                                      ! Sky Clearness
  0,                                      ! Rain Indicator
  0,                                      ! Snow Indicator
  21,                                     ! Day of Month
  7,                                      ! Month
  SummerDesignDay,                        ! Day Type
  0,                                      ! Daylight Saving Time Indicator
  Wetbulb,                                ! Humidity Indicating Type
  ,                                       ! Humidity Indicating Day Schedule Name
  DefaultMultipliers,                     ! Dry-Bulb Temperature Range Modifier Type
  ,                                       ! Dry-Bulb Temperature Range Modifier Schedule Name
  ASHRAETau,                              ! Solar Model Indicator
  ,                                       ! Beam Solar Day Schedule Name
  ,                                       ! Diffuse Solar Day Schedule Name
  0.485,                                  ! ASHRAE Taub {dimensionless}
  1.942;                                  ! ASHRAE Taud {dimensionless}

OS:ComponentData,
  {c42d4a5c-5ac0-4564-88b8-6e1863ff26b5}, ! Handle
  Component Data 1,                       ! Name
  {66b51bc2-fb68-4fdc-a4d8-2ca63d2d7189}, ! UUID
  {83b41925-30dd-493f-aac2-c9588f4f1919}, ! Version UUID
  1366306531,                             ! Creation Timestamp
  1366306531,                             ! Version Timestamp
  {827cece9-ae19-492f-bfb1-5bfb776d81f4}; ! Name of Object 1

