
OS:Version,
  {1ece1432-282e-42b9-82f1-63218416ea2b}, ! Handle
  0.9.3;                                  ! Version Identifier

OS:SizingPeriod:DesignDay,
  {b23ab76f-f139-4a3f-b4e8-93e5aa4b4177}, ! Handle
  Mason City Municipal Arpt Ann Hum_n 99% Condns DP=>MCDB, ! Name
  -21.8,                                  ! Maximum Dry-Bulb Temperature {C}
  0,                                      ! Daily Dry-Bulb Temperature Range {deltaC}
  -26.3,                                  ! Humidity Indicating Conditions at Maximum Dry-Bulb {BasedOnField A3}
  97028,                                  ! Barometric Pressure {Pa}
  5,                                      ! Wind Speed {m/s}
  300,                                    ! Wind Direction {deg}
  0,                                      ! Sky Clearness
  0,                                      ! Rain Indicator
  0,                                      ! Snow Indicator
  21,                                     ! Day of Month
  1,                                      ! Month
  WinterDesignDay,                        ! Day Type
  0,                                      ! Daylight Saving Time Indicator
  Dewpoint,                               ! Humidity Indicating Type
  ,                                       ! Humidity Indicating Day Schedule Name
  DefaultMultipliers,                     ! Dry-Bulb Temperature Range Modifier Type
  ,                                       ! Dry-Bulb Temperature Range Modifier Schedule Name
  ASHRAEClearSky;                         ! Solar Model Indicator

OS:ComponentData,
  {ae00e6f1-9567-47b6-81c8-3c8cade316f7}, ! Handle
  Component Data 1,                       ! Name
  {efdb3221-ee59-4d82-b54f-4b2359c623df}, ! UUID
  {2aa25996-305f-47af-aba4-6b64fb4109ff}, ! Version UUID
  1366307216,                             ! Creation Timestamp
  1366307216,                             ! Version Timestamp
  {b23ab76f-f139-4a3f-b4e8-93e5aa4b4177}; ! Name of Object 1

