
OS:Version,
  {89e14c64-6ab8-4884-a2c6-13ecf30d732c}, ! Handle
  0.9.3;                                  ! Version Identifier

OS:SizingPeriod:DesignDay,
  {5462d96e-9ce7-40fd-a9cb-da4a1b0ff03c}, ! Handle
  Pipestone  Awos Ann Clg 1% Condns DP=>MDB, ! Name
  27.1,                                   ! Maximum Dry-Bulb Temperature {C}
  10.8,                                   ! Daily Dry-Bulb Temperature Range {deltaC}
  23.6,                                   ! Humidity Indicating Conditions at Maximum Dry-Bulb {BasedOnField A3}
  95129,                                  ! Barometric Pressure {Pa}
  5.7,                                    ! Wind Speed {m/s}
  190,                                    ! Wind Direction {deg}
  0,                                      ! Sky Clearness
  0,                                      ! Rain Indicator
  0,                                      ! Snow Indicator
  21,                                     ! Day of Month
  7,                                      ! Month
  SummerDesignDay,                        ! Day Type
  0,                                      ! Daylight Saving Time Indicator
  Dewpoint,                               ! Humidity Indicating Type
  ,                                       ! Humidity Indicating Day Schedule Name
  DefaultMultipliers,                     ! Dry-Bulb Temperature Range Modifier Type
  ,                                       ! Dry-Bulb Temperature Range Modifier Schedule Name
  ASHRAETau,                              ! Solar Model Indicator
  ,                                       ! Beam Solar Day Schedule Name
  ,                                       ! Diffuse Solar Day Schedule Name
  0.387,                                  ! ASHRAE Taub {dimensionless}
  2.294;                                  ! ASHRAE Taud {dimensionless}

OS:ComponentData,
  {66ce490d-f9bd-43a4-8cb9-26c2ac9e8d73}, ! Handle
  Component Data 1,                       ! Name
  {16683012-3943-4d73-8af3-d35eb5e316b1}, ! UUID
  {c1c45fb6-971c-4673-8b33-311f0e21c3a4}, ! Version UUID
  1366308366,                             ! Creation Timestamp
  1366308366,                             ! Version Timestamp
  {5462d96e-9ce7-40fd-a9cb-da4a1b0ff03c}; ! Name of Object 1

