
OS:Version,
  {147e5819-954b-4506-85f0-9593c204ca9b}, ! Handle
  0.9.3;                                  ! Version Identifier

OS:SizingPeriod:DesignDay,
  {4f676de4-3687-4695-a42d-1a98baed614b}, ! Handle
  Skagway Airport Ann Htg 99% Condns DB,  ! Name
  -13.9,                                  ! Maximum Dry-Bulb Temperature {C}
  0,                                      ! Daily Dry-Bulb Temperature Range {deltaC}
  -13.9,                                  ! Humidity Indicating Conditions at Maximum Dry-Bulb {BasedOnField A3}
  101217,                                 ! Barometric Pressure {Pa}
  11.1,                                   ! Wind Speed {m/s}
  40,                                     ! Wind Direction {deg}
  0,                                      ! Sky Clearness
  0,                                      ! Rain Indicator
  0,                                      ! Snow Indicator
  21,                                     ! Day of Month
  1,                                      ! Month
  WinterDesignDay,                        ! Day Type
  0,                                      ! Daylight Saving Time Indicator
  Wetbulb,                                ! Humidity Indicating Type
  ,                                       ! Humidity Indicating Day Schedule Name
  DefaultMultipliers,                     ! Dry-Bulb Temperature Range Modifier Type
  ,                                       ! Dry-Bulb Temperature Range Modifier Schedule Name
  ASHRAEClearSky;                         ! Solar Model Indicator

OS:ComponentData,
  {95922429-6aea-4a75-aa98-4ff600ffcf28}, ! Handle
  Component Data 1,                       ! Name
  {cfa8847e-3c2e-49d9-8d4a-3fc839de7755}, ! UUID
  {8a21cf9a-4402-4cc7-b7da-55989051b744}, ! Version UUID
  1366305558,                             ! Creation Timestamp
  1366305558,                             ! Version Timestamp
  {4f676de4-3687-4695-a42d-1a98baed614b}; ! Name of Object 1

