
OS:Version,
  {00f8dc02-3551-4d25-bc30-a538eae3c570}, ! Handle
  0.9.3;                                  ! Version Identifier

OS:SizingPeriod:DesignDay,
  {dafc1d8a-e1c3-468b-b551-9e75d0ba2d7d}, ! Handle
  Minot/Int'l Airport Ann Htg Wind 99.6% Condns WS=>MCDB, ! Name
  -6.4,                                   ! Maximum Dry-Bulb Temperature {C}
  0,                                      ! Daily Dry-Bulb Temperature Range {deltaC}
  -6.4,                                   ! Humidity Indicating Conditions at Maximum Dry-Bulb {BasedOnField A3}
  95198,                                  ! Barometric Pressure {Pa}
  14.4,                                   ! Wind Speed {m/s}
  280,                                    ! Wind Direction {deg}
  0,                                      ! Sky Clearness
  0,                                      ! Rain Indicator
  0,                                      ! Snow Indicator
  21,                                     ! Day of Month
  1,                                      ! Month
  WinterDesignDay,                        ! Day Type
  0,                                      ! Daylight Saving Time Indicator
  Wetbulb,                                ! Humidity Indicating Type
  ,                                       ! Humidity Indicating Day Schedule Name
  DefaultMultipliers,                     ! Dry-Bulb Temperature Range Modifier Type
  ,                                       ! Dry-Bulb Temperature Range Modifier Schedule Name
  ASHRAEClearSky;                         ! Solar Model Indicator

OS:ComponentData,
  {d757d9bf-2257-4c8a-971a-7e4aaadc9b89}, ! Handle
  Component Data 1,                       ! Name
  {6208a939-9833-47bc-8012-12ea95191aaf}, ! UUID
  {2528dd39-825a-4724-bb28-1e2ff7078ac5}, ! Version UUID
  1366309062,                             ! Creation Timestamp
  1366309062,                             ! Version Timestamp
  {dafc1d8a-e1c3-468b-b551-9e75d0ba2d7d}; ! Name of Object 1

