
OS:Version,
  {670a7899-fc7c-43f4-915e-91b7db54e2ba}, ! Handle
  0.9.3;                                  ! Version Identifier

OS:SizingPeriod:DesignDay,
  {993dd7d6-a99b-4f03-a2d5-2498125b832c}, ! Handle
  RICHMOND Ann Clg 1% Condns Enth=>MDB,   ! Name
  31,                                     ! Maximum Dry-Bulb Temperature {C}
  10.4,                                   ! Daily Dry-Bulb Temperature Range {deltaC}
  77400,                                  ! Humidity Indicating Conditions at Maximum Dry-Bulb {BasedOnField A3}
  100726,                                 ! Barometric Pressure {Pa}
  4.5,                                    ! Wind Speed {m/s}
  230,                                    ! Wind Direction {deg}
  0,                                      ! Sky Clearness
  0,                                      ! Rain Indicator
  0,                                      ! Snow Indicator
  21,                                     ! Day of Month
  7,                                      ! Month
  SummerDesignDay,                        ! Day Type
  0,                                      ! Daylight Saving Time Indicator
  Enthalpy,                               ! Humidity Indicating Type
  ,                                       ! Humidity Indicating Day Schedule Name
  DefaultMultipliers,                     ! Dry-Bulb Temperature Range Modifier Type
  ,                                       ! Dry-Bulb Temperature Range Modifier Schedule Name
  ASHRAETau,                              ! Solar Model Indicator
  ,                                       ! Beam Solar Day Schedule Name
  ,                                       ! Diffuse Solar Day Schedule Name
  0.567,                                  ! ASHRAE Taub {dimensionless}
  1.742;                                  ! ASHRAE Taud {dimensionless}

OS:ComponentData,
  {e1414a13-5457-42ab-a2f8-b04425e60b49}, ! Handle
  Component Data 1,                       ! Name
  {b124e2d9-43fc-40df-903b-7f6d3ee84f05}, ! UUID
  {9e3aa2df-5698-48cf-b676-0ff430afd70b}, ! Version UUID
  1366311165,                             ! Creation Timestamp
  1366311165,                             ! Version Timestamp
  {993dd7d6-a99b-4f03-a2d5-2498125b832c}; ! Name of Object 1

