
OS:Version,
  {d3e91fe1-7a5f-4cac-9657-fe483af6b2e5}, ! Handle
  0.9.3;                                  ! Version Identifier

OS:SizingPeriod:DesignDay,
  {45d982a3-bfe4-40fe-a56c-559c5015816d}, ! Handle
  West Palm Beach Intl Arpt Ann Clg 2% Condns DP=>MDB, ! Name
  28.4,                                   ! Maximum Dry-Bulb Temperature {C}
  7.3,                                    ! Daily Dry-Bulb Temperature Range {deltaC}
  24.9,                                   ! Humidity Indicating Conditions at Maximum Dry-Bulb {BasedOnField A3}
  101253,                                 ! Barometric Pressure {Pa}
  5.2,                                    ! Wind Speed {m/s}
  130,                                    ! Wind Direction {deg}
  0,                                      ! Sky Clearness
  0,                                      ! Rain Indicator
  0,                                      ! Snow Indicator
  21,                                     ! Day of Month
  8,                                      ! Month
  SummerDesignDay,                        ! Day Type
  0,                                      ! Daylight Saving Time Indicator
  Dewpoint,                               ! Humidity Indicating Type
  ,                                       ! Humidity Indicating Day Schedule Name
  DefaultMultipliers,                     ! Dry-Bulb Temperature Range Modifier Type
  ,                                       ! Dry-Bulb Temperature Range Modifier Schedule Name
  ASHRAETau,                              ! Solar Model Indicator
  ,                                       ! Beam Solar Day Schedule Name
  ,                                       ! Diffuse Solar Day Schedule Name
  0.497,                                  ! ASHRAE Taub {dimensionless}
  2.018;                                  ! ASHRAE Taud {dimensionless}

OS:ComponentData,
  {d5413f14-b89c-4db3-8171-a284b76aa2c0}, ! Handle
  Component Data 1,                       ! Name
  {e6689d53-41b5-430a-a062-2c7ef0df716b}, ! UUID
  {70bf780d-0448-47f5-a211-ce910b3a70d3}, ! Version UUID
  1366306955,                             ! Creation Timestamp
  1366306955,                             ! Version Timestamp
  {45d982a3-bfe4-40fe-a56c-559c5015816d}; ! Name of Object 1

