
OS:Version,
  {f02e1ea6-9917-42f4-b14f-176da1cc4fdf}, ! Handle
  0.9.3;                                  ! Version Identifier

OS:SizingPeriod:DesignDay,
  {77b1daaf-267b-4101-ab15-a71db4f49eaa}, ! Handle
  Meridian Naas Ann Clg 2% Condns WB=>MDB, ! Name
  31.8,                                   ! Maximum Dry-Bulb Temperature {C}
  11.7,                                   ! Daily Dry-Bulb Temperature Range {deltaC}
  25.6,                                   ! Humidity Indicating Conditions at Maximum Dry-Bulb {BasedOnField A3}
  100332,                                 ! Barometric Pressure {Pa}
  2,                                      ! Wind Speed {m/s}
  270,                                    ! Wind Direction {deg}
  0,                                      ! Sky Clearness
  0,                                      ! Rain Indicator
  0,                                      ! Snow Indicator
  21,                                     ! Day of Month
  7,                                      ! Month
  SummerDesignDay,                        ! Day Type
  0,                                      ! Daylight Saving Time Indicator
  Wetbulb,                                ! Humidity Indicating Type
  ,                                       ! Humidity Indicating Day Schedule Name
  DefaultMultipliers,                     ! Dry-Bulb Temperature Range Modifier Type
  ,                                       ! Dry-Bulb Temperature Range Modifier Schedule Name
  ASHRAETau,                              ! Solar Model Indicator
  ,                                       ! Beam Solar Day Schedule Name
  ,                                       ! Diffuse Solar Day Schedule Name
  0.555,                                  ! ASHRAE Taub {dimensionless}
  1.808;                                  ! ASHRAE Taud {dimensionless}

OS:ComponentData,
  {37576730-0cf6-42f4-9df5-7af0b12d01b0}, ! Handle
  Component Data 1,                       ! Name
  {8f0f7d65-7d17-4cae-9966-098ff1b288ad}, ! UUID
  {035e6a54-acb5-4702-a876-2c4e86ae0104}, ! Version UUID
  1366308680,                             ! Creation Timestamp
  1366308680,                             ! Version Timestamp
  {77b1daaf-267b-4101-ab15-a71db4f49eaa}; ! Name of Object 1

