
OS:Version,
  {33f3cb54-4f3f-497c-9adc-bee8d3129223}, ! Handle
  0.9.3;                                  ! Version Identifier

OS:SizingPeriod:DesignDay,
  {1ff0b289-265d-404f-8336-eaedbae3aff8}, ! Handle
  Randolph Afb Ann Clg .4% Condns Enth=>MDB, ! Name
  31.9,                                   ! Maximum Dry-Bulb Temperature {C}
  12.5,                                   ! Daily Dry-Bulb Temperature Range {deltaC}
  80500,                                  ! Humidity Indicating Conditions at Maximum Dry-Bulb {BasedOnField A3}
  98569,                                  ! Barometric Pressure {Pa}
  4.7,                                    ! Wind Speed {m/s}
  160,                                    ! Wind Direction {deg}
  0,                                      ! Sky Clearness
  0,                                      ! Rain Indicator
  0,                                      ! Snow Indicator
  21,                                     ! Day of Month
  8,                                      ! Month
  SummerDesignDay,                        ! Day Type
  0,                                      ! Daylight Saving Time Indicator
  Enthalpy,                               ! Humidity Indicating Type
  ,                                       ! Humidity Indicating Day Schedule Name
  DefaultMultipliers,                     ! Dry-Bulb Temperature Range Modifier Type
  ,                                       ! Dry-Bulb Temperature Range Modifier Schedule Name
  ASHRAETau,                              ! Solar Model Indicator
  ,                                       ! Beam Solar Day Schedule Name
  ,                                       ! Diffuse Solar Day Schedule Name
  0.45,                                   ! ASHRAE Taub {dimensionless}
  2.14;                                   ! ASHRAE Taud {dimensionless}

OS:ComponentData,
  {009e8b96-7ccc-45d1-9d18-8bd566cdb48a}, ! Handle
  Component Data 1,                       ! Name
  {b90bb9c2-dc92-46d9-a5f5-850efa2f674e}, ! UUID
  {efb2f020-938b-402a-bd83-ddedc7d73247}, ! Version UUID
  1366310861,                             ! Creation Timestamp
  1366310861,                             ! Version Timestamp
  {1ff0b289-265d-404f-8336-eaedbae3aff8}; ! Name of Object 1

