
OS:Version,
  {b4a483cb-8310-4718-9622-a9f76006c0cd}, ! Handle
  0.9.3;                                  ! Version Identifier

OS:SizingPeriod:DesignDay,
  {3ce4074f-ade9-45c7-bd90-ba3ff79f999a}, ! Handle
  Martinsburg Eastern Wv Reg Ap Ann Hum_n 99% Condns DP=>MCDB, ! Name
  -7.8,                                   ! Maximum Dry-Bulb Temperature {C}
  0,                                      ! Daily Dry-Bulb Temperature Range {deltaC}
  -17.9,                                  ! Humidity Indicating Conditions at Maximum Dry-Bulb {BasedOnField A3}
  99394,                                  ! Barometric Pressure {Pa}
  2.8,                                    ! Wind Speed {m/s}
  270,                                    ! Wind Direction {deg}
  0,                                      ! Sky Clearness
  0,                                      ! Rain Indicator
  0,                                      ! Snow Indicator
  21,                                     ! Day of Month
  1,                                      ! Month
  WinterDesignDay,                        ! Day Type
  0,                                      ! Daylight Saving Time Indicator
  Dewpoint,                               ! Humidity Indicating Type
  ,                                       ! Humidity Indicating Day Schedule Name
  DefaultMultipliers,                     ! Dry-Bulb Temperature Range Modifier Type
  ,                                       ! Dry-Bulb Temperature Range Modifier Schedule Name
  ASHRAEClearSky;                         ! Solar Model Indicator

OS:ComponentData,
  {2d092690-66f4-498a-bf4e-cebf8f3c1e3e}, ! Handle
  Component Data 1,                       ! Name
  {c661bc49-c928-4aa0-8293-de00093b5022}, ! UUID
  {e98c24e1-ff0e-48c2-82a7-c6c33663040e}, ! Version UUID
  1366311665,                             ! Creation Timestamp
  1366311665,                             ! Version Timestamp
  {3ce4074f-ade9-45c7-bd90-ba3ff79f999a}; ! Name of Object 1

