
OS:Version,
  {5016aa9c-5a80-456c-a762-a9a1ecc563af}, ! Handle
  0.9.3;                                  ! Version Identifier

OS:SizingPeriod:DesignDay,
  {1c5ee2ed-8609-4519-bf6a-0bfe023290fe}, ! Handle
  Winslow Municipal Ap Ann Clg .4% Condns DP=>MDB, ! Name
  20.8,                                   ! Maximum Dry-Bulb Temperature {C}
  16.2,                                   ! Daily Dry-Bulb Temperature Range {deltaC}
  16.5,                                   ! Humidity Indicating Conditions at Maximum Dry-Bulb {BasedOnField A3}
  84660,                                  ! Barometric Pressure {Pa}
  4.7,                                    ! Wind Speed {m/s}
  260,                                    ! Wind Direction {deg}
  0,                                      ! Sky Clearness
  0,                                      ! Rain Indicator
  0,                                      ! Snow Indicator
  21,                                     ! Day of Month
  7,                                      ! Month
  SummerDesignDay,                        ! Day Type
  0,                                      ! Daylight Saving Time Indicator
  Dewpoint,                               ! Humidity Indicating Type
  ,                                       ! Humidity Indicating Day Schedule Name
  DefaultMultipliers,                     ! Dry-Bulb Temperature Range Modifier Type
  ,                                       ! Dry-Bulb Temperature Range Modifier Schedule Name
  ASHRAETau,                              ! Solar Model Indicator
  ,                                       ! Beam Solar Day Schedule Name
  ,                                       ! Diffuse Solar Day Schedule Name
  0.444,                                  ! ASHRAE Taub {dimensionless}
  1.959;                                  ! ASHRAE Taud {dimensionless}

OS:ComponentData,
  {5905f734-fc17-4fbf-ba65-a41354b7164c}, ! Handle
  Component Data 1,                       ! Name
  {82375d02-bd36-4c6a-80a5-5e29c77ff550}, ! UUID
  {c58b57fa-a92f-4253-9e36-880249eca8e2}, ! Version UUID
  1366306331,                             ! Creation Timestamp
  1366306331,                             ! Version Timestamp
  {1c5ee2ed-8609-4519-bf6a-0bfe023290fe}; ! Name of Object 1

