
OS:Version,
  {7cadcc12-d89d-4a9b-bf89-dadd4205dde5}, ! Handle
  0.9.3;                                  ! Version Identifier

OS:SizingPeriod:DesignDay,
  {850c8b29-5eb7-4e1c-ad3d-f3f6bfd29ca6}, ! Handle
  ROCKFORD Ann Clg 1% Condns Enth=>MDB,   ! Name
  29.4,                                   ! Maximum Dry-Bulb Temperature {C}
  11,                                     ! Daily Dry-Bulb Temperature Range {deltaC}
  75600,                                  ! Humidity Indicating Conditions at Maximum Dry-Bulb {BasedOnField A3}
  98698,                                  ! Barometric Pressure {Pa}
  5.3,                                    ! Wind Speed {m/s}
  210,                                    ! Wind Direction {deg}
  0,                                      ! Sky Clearness
  0,                                      ! Rain Indicator
  0,                                      ! Snow Indicator
  21,                                     ! Day of Month
  7,                                      ! Month
  SummerDesignDay,                        ! Day Type
  0,                                      ! Daylight Saving Time Indicator
  Enthalpy,                               ! Humidity Indicating Type
  ,                                       ! Humidity Indicating Day Schedule Name
  DefaultMultipliers,                     ! Dry-Bulb Temperature Range Modifier Type
  ,                                       ! Dry-Bulb Temperature Range Modifier Schedule Name
  ASHRAETau,                              ! Solar Model Indicator
  ,                                       ! Beam Solar Day Schedule Name
  ,                                       ! Diffuse Solar Day Schedule Name
  0.445,                                  ! ASHRAE Taub {dimensionless}
  2.082;                                  ! ASHRAE Taud {dimensionless}

OS:ComponentData,
  {cb0e29db-97eb-4c72-b290-d0fdda731c3a}, ! Handle
  Component Data 1,                       ! Name
  {69a55e39-a8d4-4e33-a254-044f882ed9fd}, ! UUID
  {00fdc722-36cc-4886-9a02-6fe13d75d962}, ! Version UUID
  1366307398,                             ! Creation Timestamp
  1366307398,                             ! Version Timestamp
  {850c8b29-5eb7-4e1c-ad3d-f3f6bfd29ca6}; ! Name of Object 1

