
OS:Version,
  {63de67d1-04ff-447a-bf1b-8b515777c2b2}, ! Handle
  0.9.3;                                  ! Version Identifier

OS:SizingPeriod:DesignDay,
  {144e150b-868a-4ba2-a3af-c14c0f7796e8}, ! Handle
  Middletown Harrisburg Intl Ap Ann Clg 2% Condns Enth=>MDB, ! Name
  28.8,                                   ! Maximum Dry-Bulb Temperature {C}
  9.6,                                    ! Daily Dry-Bulb Temperature Range {deltaC}
  72000,                                  ! Humidity Indicating Conditions at Maximum Dry-Bulb {BasedOnField A3}
  100225,                                 ! Barometric Pressure {Pa}
  4.4,                                    ! Wind Speed {m/s}
  300,                                    ! Wind Direction {deg}
  0,                                      ! Sky Clearness
  0,                                      ! Rain Indicator
  0,                                      ! Snow Indicator
  21,                                     ! Day of Month
  7,                                      ! Month
  SummerDesignDay,                        ! Day Type
  0,                                      ! Daylight Saving Time Indicator
  Enthalpy,                               ! Humidity Indicating Type
  ,                                       ! Humidity Indicating Day Schedule Name
  DefaultMultipliers,                     ! Dry-Bulb Temperature Range Modifier Type
  ,                                       ! Dry-Bulb Temperature Range Modifier Schedule Name
  ASHRAETau,                              ! Solar Model Indicator
  ,                                       ! Beam Solar Day Schedule Name
  ,                                       ! Diffuse Solar Day Schedule Name
  0.521,                                  ! ASHRAE Taub {dimensionless}
  1.834;                                  ! ASHRAE Taud {dimensionless}

OS:ComponentData,
  {ddfc7cfd-6b8e-4da9-b120-95902cd4b407}, ! Handle
  Component Data 1,                       ! Name
  {8cb93f8a-03d3-4661-8152-7f3c417d0f3c}, ! UUID
  {54c92547-9d2f-480b-aff3-856a02a1c075}, ! Version UUID
  1366310199,                             ! Creation Timestamp
  1366310199,                             ! Version Timestamp
  {144e150b-868a-4ba2-a3af-c14c0f7796e8}; ! Name of Object 1

