
OS:Version,
  {be563fdd-8f51-42b3-aa50-ef37ec2ff250}, ! Handle
  0.9.3;                                  ! Version Identifier

OS:SizingPeriod:DesignDay,
  {901161be-3ecb-4edd-8679-aab2aee0462f}, ! Handle
  Norfolk Nas Ann Clg .4% Condns WB=>MDB, ! Name
  31.8,                                   ! Maximum Dry-Bulb Temperature {C}
  7.9,                                    ! Daily Dry-Bulb Temperature Range {deltaC}
  26.6,                                   ! Humidity Indicating Conditions at Maximum Dry-Bulb {BasedOnField A3}
  101205,                                 ! Barometric Pressure {Pa}
  4.3,                                    ! Wind Speed {m/s}
  210,                                    ! Wind Direction {deg}
  0,                                      ! Sky Clearness
  0,                                      ! Rain Indicator
  0,                                      ! Snow Indicator
  21,                                     ! Day of Month
  7,                                      ! Month
  SummerDesignDay,                        ! Day Type
  0,                                      ! Daylight Saving Time Indicator
  Wetbulb,                                ! Humidity Indicating Type
  ,                                       ! Humidity Indicating Day Schedule Name
  DefaultMultipliers,                     ! Dry-Bulb Temperature Range Modifier Type
  ,                                       ! Dry-Bulb Temperature Range Modifier Schedule Name
  ASHRAETau,                              ! Solar Model Indicator
  ,                                       ! Beam Solar Day Schedule Name
  ,                                       ! Diffuse Solar Day Schedule Name
  0.593,                                  ! ASHRAE Taub {dimensionless}
  1.694;                                  ! ASHRAE Taud {dimensionless}

OS:ComponentData,
  {a65c445c-0209-47e2-9b60-b62badce104f}, ! Handle
  Component Data 1,                       ! Name
  {fdedcb6d-3516-49a1-ae19-b64f61734ffd}, ! UUID
  {d364d724-3cbe-4d64-90b6-790c1989e41d}, ! Version UUID
  1366311140,                             ! Creation Timestamp
  1366311140,                             ! Version Timestamp
  {901161be-3ecb-4edd-8679-aab2aee0462f}; ! Name of Object 1

