
OS:Version,
  {2313d503-421c-468c-b4ed-c43e5ca57621}, ! Handle
  0.9.3;                                  ! Version Identifier

OS:SizingPeriod:DesignDay,
  {8e646ab9-9d80-4cf7-a5ae-6035a66055ee}, ! Handle
  MISSOULA Ann Clg 1% Condns Enth=>MDB,   ! Name
  28.1,                                   ! Maximum Dry-Bulb Temperature {C}
  17.5,                                   ! Daily Dry-Bulb Temperature Range {deltaC}
  53000,                                  ! Humidity Indicating Conditions at Maximum Dry-Bulb {BasedOnField A3}
  90180,                                  ! Barometric Pressure {Pa}
  4.4,                                    ! Wind Speed {m/s}
  320,                                    ! Wind Direction {deg}
  0,                                      ! Sky Clearness
  0,                                      ! Rain Indicator
  0,                                      ! Snow Indicator
  21,                                     ! Day of Month
  7,                                      ! Month
  SummerDesignDay,                        ! Day Type
  0,                                      ! Daylight Saving Time Indicator
  Enthalpy,                               ! Humidity Indicating Type
  ,                                       ! Humidity Indicating Day Schedule Name
  DefaultMultipliers,                     ! Dry-Bulb Temperature Range Modifier Type
  ,                                       ! Dry-Bulb Temperature Range Modifier Schedule Name
  ASHRAETau,                              ! Solar Model Indicator
  ,                                       ! Beam Solar Day Schedule Name
  ,                                       ! Diffuse Solar Day Schedule Name
  0.357,                                  ! ASHRAE Taub {dimensionless}
  2.409;                                  ! ASHRAE Taud {dimensionless}

OS:ComponentData,
  {0b4ad1f4-25ea-44e8-b470-a8e53dd51617}, ! Handle
  Component Data 1,                       ! Name
  {33a3e344-c9cf-4fa7-bbd8-096bd36e5943}, ! UUID
  {f1fa094d-1778-4e69-9921-5b359c360f83}, ! Version UUID
  1366308842,                             ! Creation Timestamp
  1366308842,                             ! Version Timestamp
  {8e646ab9-9d80-4cf7-a5ae-6035a66055ee}; ! Name of Object 1

