
OS:Version,
  {14f65045-5b9a-4a31-8a2b-cc5f36a988ac}, ! Handle
  0.9.3;                                  ! Version Identifier

OS:SizingPeriod:DesignDay,
  {5587ea3f-f4e3-483c-8890-1705554bcf08}, ! Handle
  SPRINGFIELD Ann Htg Wind 99% Condns WS=>MCDB, ! Name
  -0.4,                                   ! Maximum Dry-Bulb Temperature {C}
  0,                                      ! Daily Dry-Bulb Temperature Range {deltaC}
  -0.4,                                   ! Humidity Indicating Conditions at Maximum Dry-Bulb {BasedOnField A3}
  99099,                                  ! Barometric Pressure {Pa}
  11.5,                                   ! Wind Speed {m/s}
  270,                                    ! Wind Direction {deg}
  0,                                      ! Sky Clearness
  0,                                      ! Rain Indicator
  0,                                      ! Snow Indicator
  21,                                     ! Day of Month
  1,                                      ! Month
  WinterDesignDay,                        ! Day Type
  0,                                      ! Daylight Saving Time Indicator
  Wetbulb,                                ! Humidity Indicating Type
  ,                                       ! Humidity Indicating Day Schedule Name
  DefaultMultipliers,                     ! Dry-Bulb Temperature Range Modifier Type
  ,                                       ! Dry-Bulb Temperature Range Modifier Schedule Name
  ASHRAEClearSky;                         ! Solar Model Indicator

OS:ComponentData,
  {f20a97bc-6f7c-4324-b654-2db68a96310b}, ! Handle
  Component Data 1,                       ! Name
  {dfe1b76e-50e3-4b32-9c01-06f0d2c59d2a}, ! UUID
  {dd2b0307-9917-46af-a402-1753f60d7d82}, ! Version UUID
  1366307408,                             ! Creation Timestamp
  1366307408,                             ! Version Timestamp
  {5587ea3f-f4e3-483c-8890-1705554bcf08}; ! Name of Object 1

