
OS:Version,
  {a0bdd835-64cc-48f0-8f54-765287bf50a6}, ! Handle
  0.9.3;                                  ! Version Identifier

OS:SizingPeriod:DesignDay,
  {10c0c7e7-448b-4a28-904c-3b09541aea5c}, ! Handle
  Manchester Airport Ann Clg 2% Condns DB=>MWB, ! Name
  29.9,                                   ! Maximum Dry-Bulb Temperature {C}
  10.9,                                   ! Daily Dry-Bulb Temperature Range {deltaC}
  20.9,                                   ! Humidity Indicating Conditions at Maximum Dry-Bulb {BasedOnField A3}
  100499,                                 ! Barometric Pressure {Pa}
  4.2,                                    ! Wind Speed {m/s}
  270,                                    ! Wind Direction {deg}
  0,                                      ! Sky Clearness
  0,                                      ! Rain Indicator
  0,                                      ! Snow Indicator
  21,                                     ! Day of Month
  7,                                      ! Month
  SummerDesignDay,                        ! Day Type
  0,                                      ! Daylight Saving Time Indicator
  Wetbulb,                                ! Humidity Indicating Type
  ,                                       ! Humidity Indicating Day Schedule Name
  DefaultMultipliers,                     ! Dry-Bulb Temperature Range Modifier Type
  ,                                       ! Dry-Bulb Temperature Range Modifier Schedule Name
  ASHRAETau,                              ! Solar Model Indicator
  ,                                       ! Beam Solar Day Schedule Name
  ,                                       ! Diffuse Solar Day Schedule Name
  0.466,                                  ! ASHRAE Taub {dimensionless}
  2.001;                                  ! ASHRAE Taud {dimensionless}

OS:ComponentData,
  {5771811f-7b51-4732-83da-62ff4a484f4b}, ! Handle
  Component Data 1,                       ! Name
  {3e601355-e313-400a-a45e-0e464ea71da5}, ! UUID
  {5df6fd61-a575-422c-9cbc-5f113187bdea}, ! Version UUID
  1366309264,                             ! Creation Timestamp
  1366309264,                             ! Version Timestamp
  {10c0c7e7-448b-4a28-904c-3b09541aea5c}; ! Name of Object 1

