
OS:Version,
  {22867f73-d098-4653-a5ca-f303b1ecb703}, ! Handle
  0.9.3;                                  ! Version Identifier

OS:SizingPeriod:DesignDay,
  {37b8decd-fe76-4a1a-96bf-ba36fc6e5a77}, ! Handle
  Syracuse Hancock IntL Arpt Ann Hum_n 99% Condns DP=>MCDB, ! Name
  -15.1,                                  ! Maximum Dry-Bulb Temperature {C}
  0,                                      ! Daily Dry-Bulb Temperature Range {deltaC}
  -20.6,                                  ! Humidity Indicating Conditions at Maximum Dry-Bulb {BasedOnField A3}
  99832,                                  ! Barometric Pressure {Pa}
  3,                                      ! Wind Speed {m/s}
  90,                                     ! Wind Direction {deg}
  0,                                      ! Sky Clearness
  0,                                      ! Rain Indicator
  0,                                      ! Snow Indicator
  21,                                     ! Day of Month
  1,                                      ! Month
  WinterDesignDay,                        ! Day Type
  0,                                      ! Daylight Saving Time Indicator
  Dewpoint,                               ! Humidity Indicating Type
  ,                                       ! Humidity Indicating Day Schedule Name
  DefaultMultipliers,                     ! Dry-Bulb Temperature Range Modifier Type
  ,                                       ! Dry-Bulb Temperature Range Modifier Schedule Name
  ASHRAEClearSky;                         ! Solar Model Indicator

OS:ComponentData,
  {6a754cf1-6243-4645-9fe4-40c0d8441b66}, ! Handle
  Component Data 1,                       ! Name
  {aeba846d-5551-4421-8ff2-440b3383ac3a}, ! UUID
  {25f6187c-9142-449c-81e0-91fc34d023cf}, ! Version UUID
  1366309734,                             ! Creation Timestamp
  1366309734,                             ! Version Timestamp
  {37b8decd-fe76-4a1a-96bf-ba36fc6e5a77}; ! Name of Object 1

