
OS:Version,
  {804db649-7228-40bb-9545-676751d7c83a}, ! Handle
  0.9.3;                                  ! Version Identifier

OS:SizingPeriod:DesignDay,
  {02e7fa71-1bdc-41c0-b181-0010e0ed4fea}, ! Handle
  PORT_ARTHUR Ann Clg .4% Condns DB=>MWB, ! Name
  34.6,                                   ! Maximum Dry-Bulb Temperature {C}
  8.9,                                    ! Daily Dry-Bulb Temperature Range {deltaC}
  25.6,                                   ! Humidity Indicating Conditions at Maximum Dry-Bulb {BasedOnField A3}
  101241,                                 ! Barometric Pressure {Pa}
  3.6,                                    ! Wind Speed {m/s}
  200,                                    ! Wind Direction {deg}
  0,                                      ! Sky Clearness
  0,                                      ! Rain Indicator
  0,                                      ! Snow Indicator
  21,                                     ! Day of Month
  7,                                      ! Month
  SummerDesignDay,                        ! Day Type
  0,                                      ! Daylight Saving Time Indicator
  Wetbulb,                                ! Humidity Indicating Type
  ,                                       ! Humidity Indicating Day Schedule Name
  DefaultMultipliers,                     ! Dry-Bulb Temperature Range Modifier Type
  ,                                       ! Dry-Bulb Temperature Range Modifier Schedule Name
  ASHRAETau,                              ! Solar Model Indicator
  ,                                       ! Beam Solar Day Schedule Name
  ,                                       ! Diffuse Solar Day Schedule Name
  0.515,                                  ! ASHRAE Taub {dimensionless}
  1.943;                                  ! ASHRAE Taud {dimensionless}

OS:ComponentData,
  {180e83b9-e870-4b67-9fcd-ca19324b0c81}, ! Handle
  Component Data 1,                       ! Name
  {1cca6558-737a-4b26-9202-614ee10b6fb8}, ! UUID
  {c4deb297-1aaf-4499-ba60-f5d51f9ec332}, ! Version UUID
  1366310594,                             ! Creation Timestamp
  1366310594,                             ! Version Timestamp
  {02e7fa71-1bdc-41c0-b181-0010e0ed4fea}; ! Name of Object 1

