
OS:Version,
  {c4d58cb9-83ac-40a8-ac4f-d17af78255f5}, ! Handle
  0.9.3;                                  ! Version Identifier

OS:SizingPeriod:DesignDay,
  {599c2062-dc33-4ce3-822f-159861958a92}, ! Handle
  Yuma Ann Hum_n 99.6% Condns DP=>MCDB,   ! Name
  12.3,                                   ! Maximum Dry-Bulb Temperature {C}
  0,                                      ! Daily Dry-Bulb Temperature Range {deltaC}
  -14.2,                                  ! Humidity Indicating Conditions at Maximum Dry-Bulb {BasedOnField A3}
  100582,                                 ! Barometric Pressure {Pa}
  2,                                      ! Wind Speed {m/s}
  30,                                     ! Wind Direction {deg}
  0,                                      ! Sky Clearness
  0,                                      ! Rain Indicator
  0,                                      ! Snow Indicator
  21,                                     ! Day of Month
  12,                                     ! Month
  WinterDesignDay,                        ! Day Type
  0,                                      ! Daylight Saving Time Indicator
  Dewpoint,                               ! Humidity Indicating Type
  ,                                       ! Humidity Indicating Day Schedule Name
  DefaultMultipliers,                     ! Dry-Bulb Temperature Range Modifier Type
  ,                                       ! Dry-Bulb Temperature Range Modifier Schedule Name
  ASHRAEClearSky;                         ! Solar Model Indicator

OS:ComponentData,
  {1477edf5-e485-4bf9-a43d-72db8d1d6f2b}, ! Handle
  Component Data 1,                       ! Name
  {2498fc7b-4097-4064-9ac6-522fb5309f12}, ! UUID
  {d3451f67-c668-47fa-a395-c27105e1ecc6}, ! Version UUID
  1366306334,                             ! Creation Timestamp
  1366306334,                             ! Version Timestamp
  {599c2062-dc33-4ce3-822f-159861958a92}; ! Name of Object 1

