
OS:Version,
  {70e8e83d-9abc-4514-aadc-eee28f90ba77}, ! Handle
  0.9.3;                                  ! Version Identifier

OS:SizingPeriod:DesignDay,
  {2b0b365b-48c4-4fba-8ee6-c6d8fd37fd78}, ! Handle
  Sioux City Ann Clg 1% Condns WB=>MDB,   ! Name
  30.6,                                   ! Maximum Dry-Bulb Temperature {C}
  11.4,                                   ! Daily Dry-Bulb Temperature Range {deltaC}
  25,                                     ! Humidity Indicating Conditions at Maximum Dry-Bulb {BasedOnField A3}
  97353,                                  ! Barometric Pressure {Pa}
  6.3,                                    ! Wind Speed {m/s}
  180,                                    ! Wind Direction {deg}
  0,                                      ! Sky Clearness
  0,                                      ! Rain Indicator
  0,                                      ! Snow Indicator
  21,                                     ! Day of Month
  7,                                      ! Month
  SummerDesignDay,                        ! Day Type
  0,                                      ! Daylight Saving Time Indicator
  Wetbulb,                                ! Humidity Indicating Type
  ,                                       ! Humidity Indicating Day Schedule Name
  DefaultMultipliers,                     ! Dry-Bulb Temperature Range Modifier Type
  ,                                       ! Dry-Bulb Temperature Range Modifier Schedule Name
  ASHRAETau,                              ! Solar Model Indicator
  ,                                       ! Beam Solar Day Schedule Name
  ,                                       ! Diffuse Solar Day Schedule Name
  0.409,                                  ! ASHRAE Taub {dimensionless}
  2.217;                                  ! ASHRAE Taud {dimensionless}

OS:ComponentData,
  {f373840f-bc9e-4414-9111-3cdd3ce0f4ad}, ! Handle
  Component Data 1,                       ! Name
  {84bbace3-717c-4926-a086-00c3e6573178}, ! UUID
  {5a88260b-a5ec-44f3-939f-a826bc2f1bbb}, ! Version UUID
  1366307233,                             ! Creation Timestamp
  1366307233,                             ! Version Timestamp
  {2b0b365b-48c4-4fba-8ee6-c6d8fd37fd78}; ! Name of Object 1

