
OS:Version,
  {bac899fd-5a4c-4bc3-bb44-87aa74706202}, ! Handle
  0.9.3;                                  ! Version Identifier

OS:SizingPeriod:DesignDay,
  {2f330a08-3302-494e-87d2-bb4912194fbb}, ! Handle
  Mount Clemens Selfridge Fld Ann Clg 1% Condns WB=>MDB, ! Name
  28.5,                                   ! Maximum Dry-Bulb Temperature {C}
  11,                                     ! Daily Dry-Bulb Temperature Range {deltaC}
  23.9,                                   ! Humidity Indicating Conditions at Maximum Dry-Bulb {BasedOnField A3}
  99217,                                  ! Barometric Pressure {Pa}
  4.4,                                    ! Wind Speed {m/s}
  160,                                    ! Wind Direction {deg}
  0,                                      ! Sky Clearness
  0,                                      ! Rain Indicator
  0,                                      ! Snow Indicator
  21,                                     ! Day of Month
  7,                                      ! Month
  SummerDesignDay,                        ! Day Type
  0,                                      ! Daylight Saving Time Indicator
  Wetbulb,                                ! Humidity Indicating Type
  ,                                       ! Humidity Indicating Day Schedule Name
  DefaultMultipliers,                     ! Dry-Bulb Temperature Range Modifier Type
  ,                                       ! Dry-Bulb Temperature Range Modifier Schedule Name
  ASHRAETau,                              ! Solar Model Indicator
  ,                                       ! Beam Solar Day Schedule Name
  ,                                       ! Diffuse Solar Day Schedule Name
  0.482,                                  ! ASHRAE Taub {dimensionless}
  1.934;                                  ! ASHRAE Taud {dimensionless}

OS:ComponentData,
  {a09fdf25-0f69-4953-ac52-92ecfe2d92fd}, ! Handle
  Component Data 1,                       ! Name
  {a93158e4-6ec6-4eb5-b376-a69ca4523fc9}, ! UUID
  {8743d5c4-c730-4f00-b4c9-0d22822a582f}, ! Version UUID
  1366308068,                             ! Creation Timestamp
  1366308068,                             ! Version Timestamp
  {2f330a08-3302-494e-87d2-bb4912194fbb}; ! Name of Object 1

