
OS:Version,
  {593a5497-f3f3-49aa-b953-bbc5024e52f2}, ! Handle
  0.9.3;                                  ! Version Identifier

OS:SizingPeriod:DesignDay,
  {a4aa9488-1873-48bc-9c51-83141527c4ba}, ! Handle
  Myrtle Beach Afb Ann Clg 1% Condns WB=>MDB, ! Name
  30.7,                                   ! Maximum Dry-Bulb Temperature {C}
  7.8,                                    ! Daily Dry-Bulb Temperature Range {deltaC}
  26.8,                                   ! Humidity Indicating Conditions at Maximum Dry-Bulb {BasedOnField A3}
  101229,                                 ! Barometric Pressure {Pa}
  3.6,                                    ! Wind Speed {m/s}
  180,                                    ! Wind Direction {deg}
  0,                                      ! Sky Clearness
  0,                                      ! Rain Indicator
  0,                                      ! Snow Indicator
  21,                                     ! Day of Month
  7,                                      ! Month
  SummerDesignDay,                        ! Day Type
  0,                                      ! Daylight Saving Time Indicator
  Wetbulb,                                ! Humidity Indicating Type
  ,                                       ! Humidity Indicating Day Schedule Name
  DefaultMultipliers,                     ! Dry-Bulb Temperature Range Modifier Type
  ,                                       ! Dry-Bulb Temperature Range Modifier Schedule Name
  ASHRAETau,                              ! Solar Model Indicator
  ,                                       ! Beam Solar Day Schedule Name
  ,                                       ! Diffuse Solar Day Schedule Name
  0.573,                                  ! ASHRAE Taub {dimensionless}
  1.77;                                   ! ASHRAE Taud {dimensionless}

OS:ComponentData,
  {49646656-38b4-4faf-9a5b-203b5cb4698e}, ! Handle
  Component Data 1,                       ! Name
  {4efef0b0-3267-4a93-a182-05199bf21a06}, ! UUID
  {f460cad1-1e61-470b-9440-ae29005d1a73}, ! Version UUID
  1366310373,                             ! Creation Timestamp
  1366310373,                             ! Version Timestamp
  {a4aa9488-1873-48bc-9c51-83141527c4ba}; ! Name of Object 1

