
OS:Version,
  {62d0e954-9392-4ada-b2e8-feb5752354c3}, ! Handle
  0.9.3;                                  ! Version Identifier

OS:SizingPeriod:DesignDay,
  {d5ce9cd3-013a-4b64-b017-4b7cdda7f3f7}, ! Handle
  Rockport Aransas Co Ann Hum_n 99% Condns DP=>MCDB, ! Name
  9.7,                                    ! Maximum Dry-Bulb Temperature {C}
  0,                                      ! Daily Dry-Bulb Temperature Range {deltaC}
  -2.6,                                   ! Humidity Indicating Conditions at Maximum Dry-Bulb {BasedOnField A3}
  101229,                                 ! Barometric Pressure {Pa}
  5.2,                                    ! Wind Speed {m/s}
  350,                                    ! Wind Direction {deg}
  0,                                      ! Sky Clearness
  0,                                      ! Rain Indicator
  0,                                      ! Snow Indicator
  21,                                     ! Day of Month
  12,                                     ! Month
  WinterDesignDay,                        ! Day Type
  0,                                      ! Daylight Saving Time Indicator
  Dewpoint,                               ! Humidity Indicating Type
  ,                                       ! Humidity Indicating Day Schedule Name
  DefaultMultipliers,                     ! Dry-Bulb Temperature Range Modifier Type
  ,                                       ! Dry-Bulb Temperature Range Modifier Schedule Name
  ASHRAEClearSky;                         ! Solar Model Indicator

OS:ComponentData,
  {27c41882-4427-495c-a507-6d0b14c292f9}, ! Handle
  Component Data 1,                       ! Name
  {7baa489c-f4af-45be-8cb5-b8ba4976ff9f}, ! UUID
  {24f5ada1-faa1-428f-9877-a2730d84816e}, ! Version UUID
  1366310863,                             ! Creation Timestamp
  1366310863,                             ! Version Timestamp
  {d5ce9cd3-013a-4b64-b017-4b7cdda7f3f7}; ! Name of Object 1

