
OS:Version,
  {e7f98ee6-2968-452c-94c1-1dc8347673d4}, ! Handle
  0.9.3;                                  ! Version Identifier

OS:SizingPeriod:DesignDay,
  {a36c381f-494e-46a9-88d1-dcfca0cf0478}, ! Handle
  San Angelo Ann Clg .4% Condns WB=>MDB,  ! Name
  31.4,                                   ! Maximum Dry-Bulb Temperature {C}
  12.8,                                   ! Daily Dry-Bulb Temperature Range {deltaC}
  23.9,                                   ! Humidity Indicating Conditions at Maximum Dry-Bulb {BasedOnField A3}
  94526,                                  ! Barometric Pressure {Pa}
  4.9,                                    ! Wind Speed {m/s}
  170,                                    ! Wind Direction {deg}
  0,                                      ! Sky Clearness
  0,                                      ! Rain Indicator
  0,                                      ! Snow Indicator
  21,                                     ! Day of Month
  7,                                      ! Month
  SummerDesignDay,                        ! Day Type
  0,                                      ! Daylight Saving Time Indicator
  Wetbulb,                                ! Humidity Indicating Type
  ,                                       ! Humidity Indicating Day Schedule Name
  DefaultMultipliers,                     ! Dry-Bulb Temperature Range Modifier Type
  ,                                       ! Dry-Bulb Temperature Range Modifier Schedule Name
  ASHRAETau,                              ! Solar Model Indicator
  ,                                       ! Beam Solar Day Schedule Name
  ,                                       ! Diffuse Solar Day Schedule Name
  0.454,                                  ! ASHRAE Taub {dimensionless}
  2.053;                                  ! ASHRAE Taud {dimensionless}

OS:ComponentData,
  {55d2d56c-fb52-434a-86e0-7907b3af46b6}, ! Handle
  Component Data 1,                       ! Name
  {e268f607-4f33-4a6f-8b36-7980230ecbac}, ! UUID
  {b60c81d7-70d0-46d2-9945-906b36996383}, ! Version UUID
  1366310868,                             ! Creation Timestamp
  1366310868,                             ! Version Timestamp
  {a36c381f-494e-46a9-88d1-dcfca0cf0478}; ! Name of Object 1

