
OS:Version,
  {4ecab230-692f-4762-b752-649a11bb2a1f}, ! Handle
  0.9.3;                                  ! Version Identifier

OS:SizingPeriod:DesignDay,
  {9165eb0e-bf18-4425-83b4-84fd251c7203}, ! Handle
  Moline Quad City Intl Ap Ann Clg .4% Condns Enth=>MDB, ! Name
  31.9,                                   ! Maximum Dry-Bulb Temperature {C}
  11.1,                                   ! Daily Dry-Bulb Temperature Range {deltaC}
  82100,                                  ! Humidity Indicating Conditions at Maximum Dry-Bulb {BasedOnField A3}
  99181,                                  ! Barometric Pressure {Pa}
  4.9,                                    ! Wind Speed {m/s}
  210,                                    ! Wind Direction {deg}
  0,                                      ! Sky Clearness
  0,                                      ! Rain Indicator
  0,                                      ! Snow Indicator
  21,                                     ! Day of Month
  7,                                      ! Month
  SummerDesignDay,                        ! Day Type
  0,                                      ! Daylight Saving Time Indicator
  Enthalpy,                               ! Humidity Indicating Type
  ,                                       ! Humidity Indicating Day Schedule Name
  DefaultMultipliers,                     ! Dry-Bulb Temperature Range Modifier Type
  ,                                       ! Dry-Bulb Temperature Range Modifier Schedule Name
  ASHRAETau,                              ! Solar Model Indicator
  ,                                       ! Beam Solar Day Schedule Name
  ,                                       ! Diffuse Solar Day Schedule Name
  0.449,                                  ! ASHRAE Taub {dimensionless}
  2.068;                                  ! ASHRAE Taud {dimensionless}

OS:ComponentData,
  {d56f5d8a-725d-4b88-b013-eaef4ff37944}, ! Handle
  Component Data 1,                       ! Name
  {4f03649b-34ae-4a81-a15f-f030b68cdfa7}, ! UUID
  {265c3c91-fe93-4538-9e89-b8224f65dda1}, ! Version UUID
  1366307369,                             ! Creation Timestamp
  1366307369,                             ! Version Timestamp
  {9165eb0e-bf18-4425-83b4-84fd251c7203}; ! Name of Object 1

