
OS:Version,
  {82c6ef25-cb02-46d6-8461-be39ccf67477}, ! Handle
  0.9.3;                                  ! Version Identifier

OS:SizingPeriod:DesignDay,
  {c7289408-7d8e-4cef-8a31-89cdc5f1acd0}, ! Handle
  Springfield Capital Ap Ann Clg .4% Condns DB=>MWB, ! Name
  33.8,                                   ! Maximum Dry-Bulb Temperature {C}
  10.7,                                   ! Daily Dry-Bulb Temperature Range {deltaC}
  24.8,                                   ! Humidity Indicating Conditions at Maximum Dry-Bulb {BasedOnField A3}
  99193,                                  ! Barometric Pressure {Pa}
  4.6,                                    ! Wind Speed {m/s}
  230,                                    ! Wind Direction {deg}
  0,                                      ! Sky Clearness
  0,                                      ! Rain Indicator
  0,                                      ! Snow Indicator
  21,                                     ! Day of Month
  7,                                      ! Month
  SummerDesignDay,                        ! Day Type
  0,                                      ! Daylight Saving Time Indicator
  Wetbulb,                                ! Humidity Indicating Type
  ,                                       ! Humidity Indicating Day Schedule Name
  DefaultMultipliers,                     ! Dry-Bulb Temperature Range Modifier Type
  ,                                       ! Dry-Bulb Temperature Range Modifier Schedule Name
  ASHRAETau,                              ! Solar Model Indicator
  ,                                       ! Beam Solar Day Schedule Name
  ,                                       ! Diffuse Solar Day Schedule Name
  0.463,                                  ! ASHRAE Taub {dimensionless}
  2.022;                                  ! ASHRAE Taud {dimensionless}

OS:ComponentData,
  {8dd1dd5c-ac1c-4a72-a306-278a8e940234}, ! Handle
  Component Data 1,                       ! Name
  {893ea9b0-52d9-4231-a6d6-b115af4be582}, ! UUID
  {6f8bfe1f-1ab2-4fba-bf07-6ed66140b610}, ! Version UUID
  1366307404,                             ! Creation Timestamp
  1366307404,                             ! Version Timestamp
  {c7289408-7d8e-4cef-8a31-89cdc5f1acd0}; ! Name of Object 1

