
OS:Version,
  {abb2c388-de1d-4165-a65c-6fa1ff7b5947}, ! Handle
  0.9.3;                                  ! Version Identifier

OS:SizingPeriod:DesignDay,
  {50032e57-59a5-4d0c-bf79-6f266842c40c}, ! Handle
  WICHITA_FALLS Ann Hum_n 99% Condns DP=>MCDB, ! Name
  -2.2,                                   ! Maximum Dry-Bulb Temperature {C}
  0,                                      ! Daily Dry-Bulb Temperature Range {deltaC}
  -12.9,                                  ! Humidity Indicating Conditions at Maximum Dry-Bulb {BasedOnField A3}
  97609,                                  ! Barometric Pressure {Pa}
  5.7,                                    ! Wind Speed {m/s}
  0,                                      ! Wind Direction {deg}
  0,                                      ! Sky Clearness
  0,                                      ! Rain Indicator
  0,                                      ! Snow Indicator
  21,                                     ! Day of Month
  1,                                      ! Month
  WinterDesignDay,                        ! Day Type
  0,                                      ! Daylight Saving Time Indicator
  Dewpoint,                               ! Humidity Indicating Type
  ,                                       ! Humidity Indicating Day Schedule Name
  DefaultMultipliers,                     ! Dry-Bulb Temperature Range Modifier Type
  ,                                       ! Dry-Bulb Temperature Range Modifier Schedule Name
  ASHRAEClearSky;                         ! Solar Model Indicator

OS:ComponentData,
  {d5593623-393f-4d1d-b240-1c584b157055}, ! Handle
  Component Data 1,                       ! Name
  {2937cfb0-b741-4f27-9bb9-6ec3aabe83b7}, ! UUID
  {3f2b3f88-2c80-42cb-a50d-c34b4dbe48e7}, ! Version UUID
  1366310928,                             ! Creation Timestamp
  1366310928,                             ! Version Timestamp
  {50032e57-59a5-4d0c-bf79-6f266842c40c}; ! Name of Object 1

