
OS:Version,
  {5fab0d49-95a3-49be-b0b8-62e497086963}, ! Handle
  0.9.3;                                  ! Version Identifier

OS:SizingPeriod:DesignDay,
  {1b1f2bcf-9b4a-4ee5-8a6f-bb047d6a682e}, ! Handle
  Ukiah Municipal Ap Ann Clg .4% Condns WB=>MDB, ! Name
  35.3,                                   ! Maximum Dry-Bulb Temperature {C}
  19.5,                                   ! Daily Dry-Bulb Temperature Range {deltaC}
  21.8,                                   ! Humidity Indicating Conditions at Maximum Dry-Bulb {BasedOnField A3}
  99075,                                  ! Barometric Pressure {Pa}
  3.5,                                    ! Wind Speed {m/s}
  240,                                    ! Wind Direction {deg}
  0,                                      ! Sky Clearness
  0,                                      ! Rain Indicator
  0,                                      ! Snow Indicator
  21,                                     ! Day of Month
  7,                                      ! Month
  SummerDesignDay,                        ! Day Type
  0,                                      ! Daylight Saving Time Indicator
  Wetbulb,                                ! Humidity Indicating Type
  ,                                       ! Humidity Indicating Day Schedule Name
  DefaultMultipliers,                     ! Dry-Bulb Temperature Range Modifier Type
  ,                                       ! Dry-Bulb Temperature Range Modifier Schedule Name
  ASHRAETau,                              ! Solar Model Indicator
  ,                                       ! Beam Solar Day Schedule Name
  ,                                       ! Diffuse Solar Day Schedule Name
  0.352,                                  ! ASHRAE Taub {dimensionless}
  2.545;                                  ! ASHRAE Taud {dimensionless}

OS:ComponentData,
  {715c11bc-83a1-4f2d-83ff-f0af5442a513}, ! Handle
  Component Data 1,                       ! Name
  {6c66f01e-d0d5-4360-b024-32e09d64c261}, ! UUID
  {dcf4db37-e1e8-4a07-bbec-fe7ee4e3300f}, ! Version UUID
  1366306629,                             ! Creation Timestamp
  1366306629,                             ! Version Timestamp
  {1b1f2bcf-9b4a-4ee5-8a6f-bb047d6a682e}; ! Name of Object 1

