
OS:Version,
  {3daf8c5e-765a-4503-bd6b-91b32672270a}, ! Handle
  0.9.3;                                  ! Version Identifier

OS:SizingPeriod:DesignDay,
  {407a24da-9b66-47b4-80c4-c40e18437166}, ! Handle
  Pierre Municipal Ap Ann Clg .4% Condns DP=>MDB, ! Name
  28,                                     ! Maximum Dry-Bulb Temperature {C}
  14.3,                                   ! Daily Dry-Bulb Temperature Range {deltaC}
  21.8,                                   ! Humidity Indicating Conditions at Maximum Dry-Bulb {BasedOnField A3}
  95141,                                  ! Barometric Pressure {Pa}
  6.2,                                    ! Wind Speed {m/s}
  170,                                    ! Wind Direction {deg}
  0,                                      ! Sky Clearness
  0,                                      ! Rain Indicator
  0,                                      ! Snow Indicator
  21,                                     ! Day of Month
  7,                                      ! Month
  SummerDesignDay,                        ! Day Type
  0,                                      ! Daylight Saving Time Indicator
  Dewpoint,                               ! Humidity Indicating Type
  ,                                       ! Humidity Indicating Day Schedule Name
  DefaultMultipliers,                     ! Dry-Bulb Temperature Range Modifier Type
  ,                                       ! Dry-Bulb Temperature Range Modifier Schedule Name
  ASHRAETau,                              ! Solar Model Indicator
  ,                                       ! Beam Solar Day Schedule Name
  ,                                       ! Diffuse Solar Day Schedule Name
  0.427,                                  ! ASHRAE Taub {dimensionless}
  2.103;                                  ! ASHRAE Taud {dimensionless}

OS:ComponentData,
  {85cfbf0d-5f03-4b6e-a510-a4c434ae71d8}, ! Handle
  Component Data 1,                       ! Name
  {370006a3-fdf2-4789-8d78-c86b0bea942e}, ! UUID
  {b07d6222-f111-48d8-a762-9a2e2b627416}, ! Version UUID
  1366310437,                             ! Creation Timestamp
  1366310437,                             ! Version Timestamp
  {407a24da-9b66-47b4-80c4-c40e18437166}; ! Name of Object 1

