
OS:Version,
  {c6a5ad49-f021-4e69-92e3-8c69ed384197}, ! Handle
  0.9.3;                                  ! Version Identifier

OS:SizingPeriod:DesignDay,
  {8393dda6-ec87-4625-9bb7-5c9bceed4bc0}, ! Handle
  Yakima Ann Hum_n 99.6% Condns DP=>MCDB, ! Name
  -12.8,                                  ! Maximum Dry-Bulb Temperature {C}
  0,                                      ! Daily Dry-Bulb Temperature Range {deltaC}
  -18.8,                                  ! Humidity Indicating Conditions at Maximum Dry-Bulb {BasedOnField A3}
  97481,                                  ! Barometric Pressure {Pa}
  2.4,                                    ! Wind Speed {m/s}
  280,                                    ! Wind Direction {deg}
  0,                                      ! Sky Clearness
  0,                                      ! Rain Indicator
  0,                                      ! Snow Indicator
  21,                                     ! Day of Month
  12,                                     ! Month
  WinterDesignDay,                        ! Day Type
  0,                                      ! Daylight Saving Time Indicator
  Dewpoint,                               ! Humidity Indicating Type
  ,                                       ! Humidity Indicating Day Schedule Name
  DefaultMultipliers,                     ! Dry-Bulb Temperature Range Modifier Type
  ,                                       ! Dry-Bulb Temperature Range Modifier Schedule Name
  ASHRAEClearSky;                         ! Solar Model Indicator

OS:ComponentData,
  {3d244617-fe57-4edd-b4fd-797f6ba1f158}, ! Handle
  Component Data 1,                       ! Name
  {283dfe34-b2d5-4d7e-baf5-344505e7411e}, ! UUID
  {cdcde84c-c134-46d3-afef-1a3fea8cfe3e}, ! Version UUID
  1366311447,                             ! Creation Timestamp
  1366311447,                             ! Version Timestamp
  {8393dda6-ec87-4625-9bb7-5c9bceed4bc0}; ! Name of Object 1

