
OS:Version,
  {214630d1-3c8e-4206-a852-4a6cf75a37f4}, ! Handle
  0.9.3;                                  ! Version Identifier

OS:SizingPeriod:DesignDay,
  {4ed35ace-8fae-490d-81e6-d9836e0d904f}, ! Handle
  Truth or Consequences Ann Hum_n 99% Condns DP=>MCDB, ! Name
  4.3,                                    ! Maximum Dry-Bulb Temperature {C}
  0,                                      ! Daily Dry-Bulb Temperature Range {deltaC}
  -17.5,                                  ! Humidity Indicating Conditions at Maximum Dry-Bulb {BasedOnField A3}
  84784,                                  ! Barometric Pressure {Pa}
  3.5,                                    ! Wind Speed {m/s}
  10,                                     ! Wind Direction {deg}
  0,                                      ! Sky Clearness
  0,                                      ! Rain Indicator
  0,                                      ! Snow Indicator
  21,                                     ! Day of Month
  12,                                     ! Month
  WinterDesignDay,                        ! Day Type
  0,                                      ! Daylight Saving Time Indicator
  Dewpoint,                               ! Humidity Indicating Type
  ,                                       ! Humidity Indicating Day Schedule Name
  DefaultMultipliers,                     ! Dry-Bulb Temperature Range Modifier Type
  ,                                       ! Dry-Bulb Temperature Range Modifier Schedule Name
  ASHRAEClearSky;                         ! Solar Model Indicator

OS:ComponentData,
  {bd3103fe-e0cc-4779-87ca-433fed25d76d}, ! Handle
  Component Data 1,                       ! Name
  {e031c935-e95c-4166-8635-84a43d3f8029}, ! UUID
  {76452435-0521-4463-b908-a22926a20e29}, ! Version UUID
  1366309443,                             ! Creation Timestamp
  1366309443,                             ! Version Timestamp
  {4ed35ace-8fae-490d-81e6-d9836e0d904f}; ! Name of Object 1

