
OS:Version,
  {fc4f8ba3-0636-4bfb-b091-f85f1d60b3af}, ! Handle
  0.9.3;                                  ! Version Identifier

OS:SizingPeriod:DesignDay,
  {e7a102ce-48b9-4c16-8953-866932c8b03a}, ! Handle
  Quincy Muni Baldwin Fld Ann Clg 2% Condns DP=>MDB, ! Name
  27.6,                                   ! Maximum Dry-Bulb Temperature {C}
  10.4,                                   ! Daily Dry-Bulb Temperature Range {deltaC}
  22.7,                                   ! Humidity Indicating Conditions at Maximum Dry-Bulb {BasedOnField A3}
  98557,                                  ! Barometric Pressure {Pa}
  4.8,                                    ! Wind Speed {m/s}
  220,                                    ! Wind Direction {deg}
  0,                                      ! Sky Clearness
  0,                                      ! Rain Indicator
  0,                                      ! Snow Indicator
  21,                                     ! Day of Month
  7,                                      ! Month
  SummerDesignDay,                        ! Day Type
  0,                                      ! Daylight Saving Time Indicator
  Dewpoint,                               ! Humidity Indicating Type
  ,                                       ! Humidity Indicating Day Schedule Name
  DefaultMultipliers,                     ! Dry-Bulb Temperature Range Modifier Type
  ,                                       ! Dry-Bulb Temperature Range Modifier Schedule Name
  ASHRAETau,                              ! Solar Model Indicator
  ,                                       ! Beam Solar Day Schedule Name
  ,                                       ! Diffuse Solar Day Schedule Name
  0.446,                                  ! ASHRAE Taub {dimensionless}
  2.091;                                  ! ASHRAE Taud {dimensionless}

OS:ComponentData,
  {6fcab1d5-fcf8-492f-b179-88377ee244da}, ! Handle
  Component Data 1,                       ! Name
  {3d3e5a47-de63-425b-aa63-c5877f91d321}, ! UUID
  {b346de6c-88f9-4daa-abdc-abf1a46b8168}, ! Version UUID
  1366307389,                             ! Creation Timestamp
  1366307389,                             ! Version Timestamp
  {e7a102ce-48b9-4c16-8953-866932c8b03a}; ! Name of Object 1

