
OS:Version,
  {bd65014f-9d10-4f85-ab38-30592752a579}, ! Handle
  0.9.3;                                  ! Version Identifier

OS:SizingPeriod:DesignDay,
  {4c7ec110-667b-48ea-862a-b69c42b407bd}, ! Handle
  Truckee Tahoe Ann Clg 2% Condns DP=>MDB, ! Name
  18.4,                                   ! Maximum Dry-Bulb Temperature {C}
  22.7,                                   ! Daily Dry-Bulb Temperature Range {deltaC}
  10,                                     ! Humidity Indicating Conditions at Maximum Dry-Bulb {BasedOnField A3}
  81509,                                  ! Barometric Pressure {Pa}
  4.3,                                    ! Wind Speed {m/s}
  230,                                    ! Wind Direction {deg}
  0,                                      ! Sky Clearness
  0,                                      ! Rain Indicator
  0,                                      ! Snow Indicator
  21,                                     ! Day of Month
  7,                                      ! Month
  SummerDesignDay,                        ! Day Type
  0,                                      ! Daylight Saving Time Indicator
  Dewpoint,                               ! Humidity Indicating Type
  ,                                       ! Humidity Indicating Day Schedule Name
  DefaultMultipliers,                     ! Dry-Bulb Temperature Range Modifier Type
  ,                                       ! Dry-Bulb Temperature Range Modifier Schedule Name
  ASHRAETau,                              ! Solar Model Indicator
  ,                                       ! Beam Solar Day Schedule Name
  ,                                       ! Diffuse Solar Day Schedule Name
  0.344,                                  ! ASHRAE Taub {dimensionless}
  2.382;                                  ! ASHRAE Taud {dimensionless}

OS:ComponentData,
  {9862f122-34bf-431c-aabb-9d17cea46cc6}, ! Handle
  Component Data 1,                       ! Name
  {2daf0da1-97a2-4445-8f4c-65ea3e06d8e3}, ! UUID
  {6e525886-8c94-41ef-b3a3-02cab885d664}, ! Version UUID
  1366306626,                             ! Creation Timestamp
  1366306626,                             ! Version Timestamp
  {4c7ec110-667b-48ea-862a-b69c42b407bd}; ! Name of Object 1

