
OS:Version,
  {3a398965-c17a-4a90-81b5-b05a7182b315}, ! Handle
  0.9.3;                                  ! Version Identifier

OS:SizingPeriod:DesignDay,
  {f1625d3e-7ab7-4c7c-9e37-0a908571b512}, ! Handle
  Montrose Co  Arpt Ann Htg Wind 99% Condns WS=>MCDB, ! Name
  4.8,                                    ! Maximum Dry-Bulb Temperature {C}
  0,                                      ! Daily Dry-Bulb Temperature Range {deltaC}
  4.8,                                    ! Humidity Indicating Conditions at Maximum Dry-Bulb {BasedOnField A3}
  81943,                                  ! Barometric Pressure {Pa}
  8.1,                                    ! Wind Speed {m/s}
  150,                                    ! Wind Direction {deg}
  0,                                      ! Sky Clearness
  0,                                      ! Rain Indicator
  0,                                      ! Snow Indicator
  21,                                     ! Day of Month
  12,                                     ! Month
  WinterDesignDay,                        ! Day Type
  0,                                      ! Daylight Saving Time Indicator
  Wetbulb,                                ! Humidity Indicating Type
  ,                                       ! Humidity Indicating Day Schedule Name
  DefaultMultipliers,                     ! Dry-Bulb Temperature Range Modifier Type
  ,                                       ! Dry-Bulb Temperature Range Modifier Schedule Name
  ASHRAEClearSky;                         ! Solar Model Indicator

OS:ComponentData,
  {032f6221-0c00-4652-b581-8fc4e4516e94}, ! Handle
  Component Data 1,                       ! Name
  {13f0b3fc-6e8a-49e4-85ce-ae27ad714e7b}, ! UUID
  {1ad20457-3d14-41c1-a399-999a5c0b646c}, ! Version UUID
  1366306723,                             ! Creation Timestamp
  1366306723,                             ! Version Timestamp
  {f1625d3e-7ab7-4c7c-9e37-0a908571b512}; ! Name of Object 1

