
OS:Version,
  {3d1f2ec4-2783-4ab7-a844-cd0880dafd94}, ! Handle
  0.9.3;                                  ! Version Identifier

OS:SizingPeriod:DesignDay,
  {37d435c8-d358-46a4-870a-4278abde7b09}, ! Handle
  Oxnard/Point Mugu NF Ann Clg .4% Condns Enth=>MDB, ! Name
  24,                                     ! Maximum Dry-Bulb Temperature {C}
  7.8,                                    ! Daily Dry-Bulb Temperature Range {deltaC}
  61400,                                  ! Humidity Indicating Conditions at Maximum Dry-Bulb {BasedOnField A3}
  101289,                                 ! Barometric Pressure {Pa}
  5.2,                                    ! Wind Speed {m/s}
  50,                                     ! Wind Direction {deg}
  0,                                      ! Sky Clearness
  0,                                      ! Rain Indicator
  0,                                      ! Snow Indicator
  21,                                     ! Day of Month
  8,                                      ! Month
  SummerDesignDay,                        ! Day Type
  0,                                      ! Daylight Saving Time Indicator
  Enthalpy,                               ! Humidity Indicating Type
  ,                                       ! Humidity Indicating Day Schedule Name
  DefaultMultipliers,                     ! Dry-Bulb Temperature Range Modifier Type
  ,                                       ! Dry-Bulb Temperature Range Modifier Schedule Name
  ASHRAETau,                              ! Solar Model Indicator
  ,                                       ! Beam Solar Day Schedule Name
  ,                                       ! Diffuse Solar Day Schedule Name
  0.425,                                  ! ASHRAE Taub {dimensionless}
  2.2;                                    ! ASHRAE Taud {dimensionless}

OS:ComponentData,
  {1a64eab4-7fff-4e13-adf2-5946257902a2}, ! Handle
  Component Data 1,                       ! Name
  {8f3ceb72-c334-44bc-8dd6-88fd683872c5}, ! UUID
  {3a070638-4cac-49a4-a549-38869b2fd19d}, ! Version UUID
  1366306537,                             ! Creation Timestamp
  1366306537,                             ! Version Timestamp
  {37d435c8-d358-46a4-870a-4278abde7b09}; ! Name of Object 1

