
OS:Version,
  {70e1c38d-6994-4e02-ae33-7512b67693bc}, ! Handle
  0.9.3;                                  ! Version Identifier

OS:SizingPeriod:DesignDay,
  {a5b30f2c-8f00-46e2-bb02-eaffa5a41f2f}, ! Handle
  Oscoda Wurtsmith Afb Ann Clg .4% Condns DB=>MWB, ! Name
  32.2,                                   ! Maximum Dry-Bulb Temperature {C}
  11.8,                                   ! Daily Dry-Bulb Temperature Range {deltaC}
  22.8,                                   ! Humidity Indicating Conditions at Maximum Dry-Bulb {BasedOnField A3}
  99087,                                  ! Barometric Pressure {Pa}
  5.4,                                    ! Wind Speed {m/s}
  200,                                    ! Wind Direction {deg}
  0,                                      ! Sky Clearness
  0,                                      ! Rain Indicator
  0,                                      ! Snow Indicator
  21,                                     ! Day of Month
  7,                                      ! Month
  SummerDesignDay,                        ! Day Type
  0,                                      ! Daylight Saving Time Indicator
  Wetbulb,                                ! Humidity Indicating Type
  ,                                       ! Humidity Indicating Day Schedule Name
  DefaultMultipliers,                     ! Dry-Bulb Temperature Range Modifier Type
  ,                                       ! Dry-Bulb Temperature Range Modifier Schedule Name
  ASHRAETau,                              ! Solar Model Indicator
  ,                                       ! Beam Solar Day Schedule Name
  ,                                       ! Diffuse Solar Day Schedule Name
  0.426,                                  ! ASHRAE Taub {dimensionless}
  2.154;                                  ! ASHRAE Taud {dimensionless}

OS:ComponentData,
  {cf673c48-24e8-40e0-aae2-6d55dc073aeb}, ! Handle
  Component Data 1,                       ! Name
  {d5a0e910-3763-4214-ab46-176e42abf608}, ! UUID
  {b3f4405e-2ed4-4199-a6b3-0a0cc4189420}, ! Version UUID
  1366308083,                             ! Creation Timestamp
  1366308083,                             ! Version Timestamp
  {a5b30f2c-8f00-46e2-bb02-eaffa5a41f2f}; ! Name of Object 1

