
OS:Version,
  {00bad359-c622-41e5-9184-265df1bf451f}, ! Handle
  0.9.3;                                  ! Version Identifier

OS:SizingPeriod:DesignDay,
  {8e8ec69f-5edf-4e83-b2f5-981863444407}, ! Handle
  Truth Or Consequences Muni Ap Ann Htg Wind 99% Condns WS=>MCDB, ! Name
  6.8,                                    ! Maximum Dry-Bulb Temperature {C}
  0,                                      ! Daily Dry-Bulb Temperature Range {deltaC}
  6.8,                                    ! Humidity Indicating Conditions at Maximum Dry-Bulb {BasedOnField A3}
  84784,                                  ! Barometric Pressure {Pa}
  10.6,                                   ! Wind Speed {m/s}
  10,                                     ! Wind Direction {deg}
  0,                                      ! Sky Clearness
  0,                                      ! Rain Indicator
  0,                                      ! Snow Indicator
  21,                                     ! Day of Month
  12,                                     ! Month
  WinterDesignDay,                        ! Day Type
  0,                                      ! Daylight Saving Time Indicator
  Wetbulb,                                ! Humidity Indicating Type
  ,                                       ! Humidity Indicating Day Schedule Name
  DefaultMultipliers,                     ! Dry-Bulb Temperature Range Modifier Type
  ,                                       ! Dry-Bulb Temperature Range Modifier Schedule Name
  ASHRAEClearSky;                         ! Solar Model Indicator

OS:ComponentData,
  {8f43cefe-d36f-4456-8d25-66cbc0d6c66d}, ! Handle
  Component Data 1,                       ! Name
  {10dbe032-31eb-4eeb-a8f2-89d9ee76dce0}, ! UUID
  {85c8f84b-0f54-4835-aa17-29a130867413}, ! Version UUID
  1366309448,                             ! Creation Timestamp
  1366309448,                             ! Version Timestamp
  {8e8ec69f-5edf-4e83-b2f5-981863444407}; ! Name of Object 1

