
OS:Version,
  {a4020f10-da6f-4d2a-9368-f2e109be1df9}, ! Handle
  0.9.3;                                  ! Version Identifier

OS:SizingPeriod:DesignDay,
  {a0da9615-c4e4-48e3-94f2-b74141b87e65}, ! Handle
  Springfield Regional Arpt Ann Htg 99% Condns DB, ! Name
  -11.7,                                  ! Maximum Dry-Bulb Temperature {C}
  0,                                      ! Daily Dry-Bulb Temperature Range {deltaC}
  -11.7,                                  ! Humidity Indicating Conditions at Maximum Dry-Bulb {BasedOnField A3}
  96796,                                  ! Barometric Pressure {Pa}
  3.8,                                    ! Wind Speed {m/s}
  350,                                    ! Wind Direction {deg}
  0,                                      ! Sky Clearness
  0,                                      ! Rain Indicator
  0,                                      ! Snow Indicator
  21,                                     ! Day of Month
  1,                                      ! Month
  WinterDesignDay,                        ! Day Type
  0,                                      ! Daylight Saving Time Indicator
  Wetbulb,                                ! Humidity Indicating Type
  ,                                       ! Humidity Indicating Day Schedule Name
  DefaultMultipliers,                     ! Dry-Bulb Temperature Range Modifier Type
  ,                                       ! Dry-Bulb Temperature Range Modifier Schedule Name
  ASHRAEClearSky;                         ! Solar Model Indicator

OS:ComponentData,
  {42381d40-0875-4fde-a6d3-64d3f5433328}, ! Handle
  Component Data 1,                       ! Name
  {32b38dd0-1b4a-4d68-97a8-cd31ed8872de}, ! UUID
  {4a902b05-5e94-4c77-a2c2-9acfd5559ff0}, ! Version UUID
  1366308570,                             ! Creation Timestamp
  1366308570,                             ! Version Timestamp
  {a0da9615-c4e4-48e3-94f2-b74141b87e65}; ! Name of Object 1

