
OS:Version,
  {1fb6fb61-d23d-4747-9131-2badb56d7dc8}, ! Handle
  0.9.3;                                  ! Version Identifier

OS:SizingPeriod:DesignDay,
  {0675743b-f0c5-4aad-8c76-28e9399d6ae6}, ! Handle
  Pease Intl Tradepor Ann Clg 1% Condns DB=>MWB, ! Name
  29.9,                                   ! Maximum Dry-Bulb Temperature {C}
  10.1,                                   ! Daily Dry-Bulb Temperature Range {deltaC}
  21.7,                                   ! Humidity Indicating Conditions at Maximum Dry-Bulb {BasedOnField A3}
  100953,                                 ! Barometric Pressure {Pa}
  4.1,                                    ! Wind Speed {m/s}
  260,                                    ! Wind Direction {deg}
  0,                                      ! Sky Clearness
  0,                                      ! Rain Indicator
  0,                                      ! Snow Indicator
  21,                                     ! Day of Month
  7,                                      ! Month
  SummerDesignDay,                        ! Day Type
  0,                                      ! Daylight Saving Time Indicator
  Wetbulb,                                ! Humidity Indicating Type
  ,                                       ! Humidity Indicating Day Schedule Name
  DefaultMultipliers,                     ! Dry-Bulb Temperature Range Modifier Type
  ,                                       ! Dry-Bulb Temperature Range Modifier Schedule Name
  ASHRAETau,                              ! Solar Model Indicator
  ,                                       ! Beam Solar Day Schedule Name
  ,                                       ! Diffuse Solar Day Schedule Name
  0.477,                                  ! ASHRAE Taub {dimensionless}
  1.97;                                   ! ASHRAE Taud {dimensionless}

OS:ComponentData,
  {4b282632-7f2c-4ce9-83a2-af5f962a40f7}, ! Handle
  Component Data 1,                       ! Name
  {5319b8cc-2c46-450b-9dee-0aa7a0a5bc59}, ! UUID
  {a4fe8968-33ef-4334-bdb3-614c282da90b}, ! Version UUID
  1366309277,                             ! Creation Timestamp
  1366309277,                             ! Version Timestamp
  {0675743b-f0c5-4aad-8c76-28e9399d6ae6}; ! Name of Object 1

