
OS:Version,
  {012f4b44-78e9-4dad-9a93-2d422b7f4201}, ! Handle
  0.9.3;                                  ! Version Identifier

OS:SizingPeriod:DesignDay,
  {d3e62633-967d-42ba-8cb9-42508598c8a6}, ! Handle
  Sierra Blanca Rgnl Ann Clg 2% Condns Enth=>MDB, ! Name
  22.2,                                   ! Maximum Dry-Bulb Temperature {C}
  12,                                     ! Daily Dry-Bulb Temperature Range {deltaC}
  56200,                                  ! Humidity Indicating Conditions at Maximum Dry-Bulb {BasedOnField A3}
  78728,                                  ! Barometric Pressure {Pa}
  5.3,                                    ! Wind Speed {m/s}
  200,                                    ! Wind Direction {deg}
  0,                                      ! Sky Clearness
  0,                                      ! Rain Indicator
  0,                                      ! Snow Indicator
  21,                                     ! Day of Month
  7,                                      ! Month
  SummerDesignDay,                        ! Day Type
  0,                                      ! Daylight Saving Time Indicator
  Enthalpy,                               ! Humidity Indicating Type
  ,                                       ! Humidity Indicating Day Schedule Name
  DefaultMultipliers,                     ! Dry-Bulb Temperature Range Modifier Type
  ,                                       ! Dry-Bulb Temperature Range Modifier Schedule Name
  ASHRAETau,                              ! Solar Model Indicator
  ,                                       ! Beam Solar Day Schedule Name
  ,                                       ! Diffuse Solar Day Schedule Name
  0.414,                                  ! ASHRAE Taub {dimensionless}
  2.048;                                  ! ASHRAE Taud {dimensionless}

OS:ComponentData,
  {12093167-c1ba-4d3e-9dd3-17ef0abb3c8c}, ! Handle
  Component Data 1,                       ! Name
  {7fc0f363-90af-46d6-bdbd-4d18f32465cc}, ! UUID
  {b02bfc8a-8bfd-438e-94e7-d934e3601daa}, ! Version UUID
  1366309434,                             ! Creation Timestamp
  1366309434,                             ! Version Timestamp
  {d3e62633-967d-42ba-8cb9-42508598c8a6}; ! Name of Object 1

