
OS:Version,
  {9be0524b-01d7-43d9-a521-469c71d96e12}, ! Handle
  0.9.3;                                  ! Version Identifier

OS:SizingPeriod:DesignDay,
  {3998294f-6858-4f4a-af1b-05cfcab12ebc}, ! Handle
  Mcgrath Arpt Ann Htg Wind 99.6% Condns WS=>MCDB, ! Name
  -6.3,                                   ! Maximum Dry-Bulb Temperature {C}
  0,                                      ! Daily Dry-Bulb Temperature Range {deltaC}
  -6.3,                                   ! Humidity Indicating Conditions at Maximum Dry-Bulb {BasedOnField A3}
  100070,                                 ! Barometric Pressure {Pa}
  8.6,                                    ! Wind Speed {m/s}
  300,                                    ! Wind Direction {deg}
  0,                                      ! Sky Clearness
  0,                                      ! Rain Indicator
  0,                                      ! Snow Indicator
  21,                                     ! Day of Month
  1,                                      ! Month
  WinterDesignDay,                        ! Day Type
  0,                                      ! Daylight Saving Time Indicator
  Wetbulb,                                ! Humidity Indicating Type
  ,                                       ! Humidity Indicating Day Schedule Name
  DefaultMultipliers,                     ! Dry-Bulb Temperature Range Modifier Type
  ,                                       ! Dry-Bulb Temperature Range Modifier Schedule Name
  ASHRAEClearSky;                         ! Solar Model Indicator

OS:ComponentData,
  {37f50bea-f3c1-4df9-b366-4829c9f2e087}, ! Handle
  Component Data 1,                       ! Name
  {80c377f9-7711-401b-8a5e-348dd149f087}, ! UUID
  {d14edec8-6a1c-4a8b-9a63-ea752e6f77bd}, ! Version UUID
  1366305416,                             ! Creation Timestamp
  1366305416,                             ! Version Timestamp
  {3998294f-6858-4f4a-af1b-05cfcab12ebc}; ! Name of Object 1

