
OS:Version,
  {b19908b4-56df-4377-9ae6-12848597f4a6}, ! Handle
  0.9.3;                                  ! Version Identifier

OS:SizingPeriod:DesignDay,
  {701218d2-f8a2-4ffc-a440-613481e88bc8}, ! Handle
  Mobile Regional Ap Ann Clg 2% Condns WB=>MDB, ! Name
  30,                                     ! Maximum Dry-Bulb Temperature {C}
  9.4,                                    ! Daily Dry-Bulb Temperature Range {deltaC}
  25.7,                                   ! Humidity Indicating Conditions at Maximum Dry-Bulb {BasedOnField A3}
  100535,                                 ! Barometric Pressure {Pa}
  3.5,                                    ! Wind Speed {m/s}
  350,                                    ! Wind Direction {deg}
  0,                                      ! Sky Clearness
  0,                                      ! Rain Indicator
  0,                                      ! Snow Indicator
  21,                                     ! Day of Month
  7,                                      ! Month
  SummerDesignDay,                        ! Day Type
  0,                                      ! Daylight Saving Time Indicator
  Wetbulb,                                ! Humidity Indicating Type
  ,                                       ! Humidity Indicating Day Schedule Name
  DefaultMultipliers,                     ! Dry-Bulb Temperature Range Modifier Type
  ,                                       ! Dry-Bulb Temperature Range Modifier Schedule Name
  ASHRAETau,                              ! Solar Model Indicator
  ,                                       ! Beam Solar Day Schedule Name
  ,                                       ! Diffuse Solar Day Schedule Name
  0.538,                                  ! ASHRAE Taub {dimensionless}
  1.867;                                  ! ASHRAE Taud {dimensionless}

