
OS:Version,
  {0ba39076-46bb-46e1-a77a-8901b79999a6}, ! Handle
  0.9.3;                                  ! Version Identifier

OS:SizingPeriod:DesignDay,
  {e1e02d5b-177a-4d90-b25f-9771c238fb05}, ! Handle
  PEORIA Ann Clg 2% Condns Enth=>MDB,     ! Name
  29.1,                                   ! Maximum Dry-Bulb Temperature {C}
  10.6,                                   ! Daily Dry-Bulb Temperature Range {deltaC}
  74900,                                  ! Humidity Indicating Conditions at Maximum Dry-Bulb {BasedOnField A3}
  98957,                                  ! Barometric Pressure {Pa}
  4.8,                                    ! Wind Speed {m/s}
  220,                                    ! Wind Direction {deg}
  0,                                      ! Sky Clearness
  0,                                      ! Rain Indicator
  0,                                      ! Snow Indicator
  21,                                     ! Day of Month
  7,                                      ! Month
  SummerDesignDay,                        ! Day Type
  0,                                      ! Daylight Saving Time Indicator
  Enthalpy,                               ! Humidity Indicating Type
  ,                                       ! Humidity Indicating Day Schedule Name
  DefaultMultipliers,                     ! Dry-Bulb Temperature Range Modifier Type
  ,                                       ! Dry-Bulb Temperature Range Modifier Schedule Name
  ASHRAETau,                              ! Solar Model Indicator
  ,                                       ! Beam Solar Day Schedule Name
  ,                                       ! Diffuse Solar Day Schedule Name
  0.455,                                  ! ASHRAE Taub {dimensionless}
  2.051;                                  ! ASHRAE Taud {dimensionless}

OS:ComponentData,
  {a4da00f2-93a3-4577-ba1b-ae066acdfc87}, ! Handle
  Component Data 1,                       ! Name
  {7b607356-fd90-4017-8d7c-04f6476220dd}, ! UUID
  {a02fa423-464e-4910-89ec-d7b07ec27477}, ! Version UUID
  1366307386,                             ! Creation Timestamp
  1366307386,                             ! Version Timestamp
  {e1e02d5b-177a-4d90-b25f-9771c238fb05}; ! Name of Object 1

