
OS:Version,
  {cae9aa88-bdac-461d-ae67-5ae39dfac33f}, ! Handle
  0.9.3;                                  ! Version Identifier

OS:SizingPeriod:DesignDay,
  {38381b9e-7377-4cc0-92bd-08cae9fd210a}, ! Handle
  Wichita Col  Jabara Ann Clg 2% Condns DB=>MWB, ! Name
  33.8,                                   ! Maximum Dry-Bulb Temperature {C}
  12,                                     ! Daily Dry-Bulb Temperature Range {deltaC}
  23.2,                                   ! Humidity Indicating Conditions at Maximum Dry-Bulb {BasedOnField A3}
  96230,                                  ! Barometric Pressure {Pa}
  6.2,                                    ! Wind Speed {m/s}
  180,                                    ! Wind Direction {deg}
  0,                                      ! Sky Clearness
  0,                                      ! Rain Indicator
  0,                                      ! Snow Indicator
  21,                                     ! Day of Month
  7,                                      ! Month
  SummerDesignDay,                        ! Day Type
  0,                                      ! Daylight Saving Time Indicator
  Wetbulb,                                ! Humidity Indicating Type
  ,                                       ! Humidity Indicating Day Schedule Name
  DefaultMultipliers,                     ! Dry-Bulb Temperature Range Modifier Type
  ,                                       ! Dry-Bulb Temperature Range Modifier Schedule Name
  ASHRAETau,                              ! Solar Model Indicator
  ,                                       ! Beam Solar Day Schedule Name
  ,                                       ! Diffuse Solar Day Schedule Name
  0.418,                                  ! ASHRAE Taub {dimensionless}
  2.21;                                   ! ASHRAE Taud {dimensionless}

OS:ComponentData,
  {64d59edd-70e8-4dff-bccc-4075ac9c1fe6}, ! Handle
  Component Data 1,                       ! Name
  {f37a614f-5866-43b9-8f3e-1345e2d674d0}, ! UUID
  {5efcbab6-d18f-4a2d-b5b0-24ce914a4c52}, ! Version UUID
  1366307595,                             ! Creation Timestamp
  1366307595,                             ! Version Timestamp
  {38381b9e-7377-4cc0-92bd-08cae9fd210a}; ! Name of Object 1

