
OS:Version,
  {753675c7-8f32-4277-9936-aa23019c1412}, ! Handle
  0.9.3;                                  ! Version Identifier

OS:SizingPeriod:DesignDay,
  {d0bbc4db-582b-4dd3-be76-d1f3fbfa2cd9}, ! Handle
  Savannah Intl Ap Ann Clg 2% Condns DP=>MDB, ! Name
  27.7,                                   ! Maximum Dry-Bulb Temperature {C}
  10,                                     ! Daily Dry-Bulb Temperature Range {deltaC}
  24.5,                                   ! Humidity Indicating Conditions at Maximum Dry-Bulb {BasedOnField A3}
  101157,                                 ! Barometric Pressure {Pa}
  3.7,                                    ! Wind Speed {m/s}
  290,                                    ! Wind Direction {deg}
  0,                                      ! Sky Clearness
  0,                                      ! Rain Indicator
  0,                                      ! Snow Indicator
  21,                                     ! Day of Month
  7,                                      ! Month
  SummerDesignDay,                        ! Day Type
  0,                                      ! Daylight Saving Time Indicator
  Dewpoint,                               ! Humidity Indicating Type
  ,                                       ! Humidity Indicating Day Schedule Name
  DefaultMultipliers,                     ! Dry-Bulb Temperature Range Modifier Type
  ,                                       ! Dry-Bulb Temperature Range Modifier Schedule Name
  ASHRAETau,                              ! Solar Model Indicator
  ,                                       ! Beam Solar Day Schedule Name
  ,                                       ! Diffuse Solar Day Schedule Name
  0.558,                                  ! ASHRAE Taub {dimensionless}
  1.811;                                  ! ASHRAE Taud {dimensionless}

OS:ComponentData,
  {83b5b22a-be21-4dd6-b3de-ddf0692da6b8}, ! Handle
  Component Data 1,                       ! Name
  {7aae5b76-1242-4381-9645-132d7d04aad5}, ! UUID
  {704eac3c-934d-42d6-b635-c8286eec32bb}, ! Version UUID
  1366307057,                             ! Creation Timestamp
  1366307057,                             ! Version Timestamp
  {d0bbc4db-582b-4dd3-be76-d1f3fbfa2cd9}; ! Name of Object 1

