
OS:Version,
  {8b069886-0f75-45c3-8cf8-fd95daa02a89}, ! Handle
  0.9.3;                                  ! Version Identifier

OS:SizingPeriod:DesignDay,
  {b05cd874-9b53-4214-9a53-b1b9366244ef}, ! Handle
  Port Heiden Ann Clg 1% Condns DP=>MDB,  ! Name
  14.3,                                   ! Maximum Dry-Bulb Temperature {C}
  5.4,                                    ! Daily Dry-Bulb Temperature Range {deltaC}
  11.3,                                   ! Humidity Indicating Conditions at Maximum Dry-Bulb {BasedOnField A3}
  100977,                                 ! Barometric Pressure {Pa}
  7.3,                                    ! Wind Speed {m/s}
  150,                                    ! Wind Direction {deg}
  0,                                      ! Sky Clearness
  0,                                      ! Rain Indicator
  0,                                      ! Snow Indicator
  21,                                     ! Day of Month
  8,                                      ! Month
  SummerDesignDay,                        ! Day Type
  0,                                      ! Daylight Saving Time Indicator
  Dewpoint,                               ! Humidity Indicating Type
  ,                                       ! Humidity Indicating Day Schedule Name
  DefaultMultipliers,                     ! Dry-Bulb Temperature Range Modifier Type
  ,                                       ! Dry-Bulb Temperature Range Modifier Schedule Name
  ASHRAETau,                              ! Solar Model Indicator
  ,                                       ! Beam Solar Day Schedule Name
  ,                                       ! Diffuse Solar Day Schedule Name
  0.375,                                  ! ASHRAE Taub {dimensionless}
  2.3;                                    ! ASHRAE Taud {dimensionless}

OS:ComponentData,
  {c5f44f3d-ceb7-4d5e-9b1a-f74e0c6f37d9}, ! Handle
  Component Data 1,                       ! Name
  {8196e4cb-b965-4de0-92a7-d389b2d7cfd2}, ! UUID
  {fe53d85f-b4bc-44c5-b90c-0be2275fccde}, ! Version UUID
  1366305505,                             ! Creation Timestamp
  1366305505,                             ! Version Timestamp
  {b05cd874-9b53-4214-9a53-b1b9366244ef}; ! Name of Object 1

