
OS:Version,
  {e43b41ac-cb08-4045-bcc0-6630e6bcd6c3}, ! Handle
  0.9.3;                                  ! Version Identifier

OS:SizingPeriod:DesignDay,
  {ac2fbd69-2ef7-4833-884d-83dc7e46894c}, ! Handle
  Tulsa Ann Hum_n 99% Condns DP=>MCDB,    ! Name
  -6.6,                                   ! Maximum Dry-Bulb Temperature {C}
  0,                                      ! Daily Dry-Bulb Temperature Range {deltaC}
  -15,                                    ! Humidity Indicating Conditions at Maximum Dry-Bulb {BasedOnField A3}
  98875,                                  ! Barometric Pressure {Pa}
  4.3,                                    ! Wind Speed {m/s}
  0,                                      ! Wind Direction {deg}
  0,                                      ! Sky Clearness
  0,                                      ! Rain Indicator
  0,                                      ! Snow Indicator
  21,                                     ! Day of Month
  1,                                      ! Month
  WinterDesignDay,                        ! Day Type
  0,                                      ! Daylight Saving Time Indicator
  Dewpoint,                               ! Humidity Indicating Type
  ,                                       ! Humidity Indicating Day Schedule Name
  DefaultMultipliers,                     ! Dry-Bulb Temperature Range Modifier Type
  ,                                       ! Dry-Bulb Temperature Range Modifier Schedule Name
  ASHRAEClearSky;                         ! Solar Model Indicator

OS:ComponentData,
  {355c3e20-96e1-4c2b-88c4-f221d920bf0c}, ! Handle
  Component Data 1,                       ! Name
  {e420e7bb-234c-45e5-a986-017d866f79ea}, ! UUID
  {6192b93d-8346-4e95-83e7-4bc138c83f60}, ! Version UUID
  1366309953,                             ! Creation Timestamp
  1366309953,                             ! Version Timestamp
  {ac2fbd69-2ef7-4833-884d-83dc7e46894c}; ! Name of Object 1

