
OS:Version,
  {43bd5fc1-d194-4044-a4b8-d40538c6b436}, ! Handle
  0.9.3;                                  ! Version Identifier

OS:SizingPeriod:DesignDay,
  {1fa5caab-1feb-4ef7-aef8-8498e6366b44}, ! Handle
  Paso Robles Municipal Arpt Ann Clg 2% Condns WB=>MDB, ! Name
  33.1,                                   ! Maximum Dry-Bulb Temperature {C}
  21,                                     ! Daily Dry-Bulb Temperature Range {deltaC}
  19.2,                                   ! Humidity Indicating Conditions at Maximum Dry-Bulb {BasedOnField A3}
  98428,                                  ! Barometric Pressure {Pa}
  4.4,                                    ! Wind Speed {m/s}
  310,                                    ! Wind Direction {deg}
  0,                                      ! Sky Clearness
  0,                                      ! Rain Indicator
  0,                                      ! Snow Indicator
  21,                                     ! Day of Month
  7,                                      ! Month
  SummerDesignDay,                        ! Day Type
  0,                                      ! Daylight Saving Time Indicator
  Wetbulb,                                ! Humidity Indicating Type
  ,                                       ! Humidity Indicating Day Schedule Name
  DefaultMultipliers,                     ! Dry-Bulb Temperature Range Modifier Type
  ,                                       ! Dry-Bulb Temperature Range Modifier Schedule Name
  ASHRAETau,                              ! Solar Model Indicator
  ,                                       ! Beam Solar Day Schedule Name
  ,                                       ! Diffuse Solar Day Schedule Name
  0.381,                                  ! ASHRAE Taub {dimensionless}
  2.343;                                  ! ASHRAE Taud {dimensionless}

OS:ComponentData,
  {b9f04b3c-6dd0-4d0b-bc8a-41564bccd92e}, ! Handle
  Component Data 1,                       ! Name
  {eeb0d99e-518b-47a0-b3c8-ec08c9caefec}, ! UUID
  {776cf779-de55-4480-afe7-2b185a8ae89c}, ! Version UUID
  1366306534,                             ! Creation Timestamp
  1366306534,                             ! Version Timestamp
  {1fa5caab-1feb-4ef7-aef8-8498e6366b44}; ! Name of Object 1

