
OS:Version,
  {61ad1ff2-a06e-4756-897b-a8c579f8f5e2}, ! Handle
  0.9.3;                                  ! Version Identifier

OS:SizingPeriod:DesignDay,
  {48f5f9e8-8be6-42d3-a42c-23128e90de46}, ! Handle
  Stockton Metropolitan Arpt Ann Htg 99.6% Condns DB, ! Name
  -0.8,                                   ! Maximum Dry-Bulb Temperature {C}
  0,                                      ! Daily Dry-Bulb Temperature Range {deltaC}
  -0.8,                                   ! Humidity Indicating Conditions at Maximum Dry-Bulb {BasedOnField A3}
  101241,                                 ! Barometric Pressure {Pa}
  1.5,                                    ! Wind Speed {m/s}
  130,                                    ! Wind Direction {deg}
  0,                                      ! Sky Clearness
  0,                                      ! Rain Indicator
  0,                                      ! Snow Indicator
  21,                                     ! Day of Month
  12,                                     ! Month
  WinterDesignDay,                        ! Day Type
  0,                                      ! Daylight Saving Time Indicator
  Wetbulb,                                ! Humidity Indicating Type
  ,                                       ! Humidity Indicating Day Schedule Name
  DefaultMultipliers,                     ! Dry-Bulb Temperature Range Modifier Type
  ,                                       ! Dry-Bulb Temperature Range Modifier Schedule Name
  ASHRAEClearSky;                         ! Solar Model Indicator

OS:ComponentData,
  {003c4352-1826-46ee-8f47-8c2b36558be4}, ! Handle
  Component Data 1,                       ! Name
  {7830676c-5da2-4f24-84ee-3d8d61e058a2}, ! UUID
  {af482497-a4f7-4cc8-a4ba-0a1f098db123}, ! Version UUID
  1366306622,                             ! Creation Timestamp
  1366306622,                             ! Version Timestamp
  {48f5f9e8-8be6-42d3-a42c-23128e90de46}; ! Name of Object 1

