
OS:Version,
  {f5fd33a4-004c-4be5-a570-5a81cac3ab6f}, ! Handle
  0.9.3;                                  ! Version Identifier

OS:SizingPeriod:DesignDay,
  {1d099acc-a3e7-467c-93d7-dfd4b85dae56}, ! Handle
  Redwood Falls Muni Ann Htg Wind 99.6% Condns WS=>MCDB, ! Name
  -10.9,                                  ! Maximum Dry-Bulb Temperature {C}
  0,                                      ! Daily Dry-Bulb Temperature Range {deltaC}
  -10.9,                                  ! Humidity Indicating Conditions at Maximum Dry-Bulb {BasedOnField A3}
  97633,                                  ! Barometric Pressure {Pa}
  12.9,                                   ! Wind Speed {m/s}
  300,                                    ! Wind Direction {deg}
  0,                                      ! Sky Clearness
  0,                                      ! Rain Indicator
  0,                                      ! Snow Indicator
  21,                                     ! Day of Month
  1,                                      ! Month
  WinterDesignDay,                        ! Day Type
  0,                                      ! Daylight Saving Time Indicator
  Wetbulb,                                ! Humidity Indicating Type
  ,                                       ! Humidity Indicating Day Schedule Name
  DefaultMultipliers,                     ! Dry-Bulb Temperature Range Modifier Type
  ,                                       ! Dry-Bulb Temperature Range Modifier Schedule Name
  ASHRAEClearSky;                         ! Solar Model Indicator

OS:ComponentData,
  {e6fe585a-4379-44b6-b92a-8b109671d328}, ! Handle
  Component Data 1,                       ! Name
  {b9814835-2f74-445e-93cb-2d1b3ea94aee}, ! UUID
  {60eaac1c-f7f4-48ab-8945-ef3d99aec904}, ! Version UUID
  1366308380,                             ! Creation Timestamp
  1366308380,                             ! Version Timestamp
  {1d099acc-a3e7-467c-93d7-dfd4b85dae56}; ! Name of Object 1

