
OS:Version,
  {882d8cf3-c4c9-4aa3-b740-9eb4e5fbd0f3}, ! Handle
  0.9.3;                                  ! Version Identifier

OS:SizingPeriod:DesignDay,
  {6b4dba9a-350f-4b6e-809a-7179fd4ba954}, ! Handle
  Palm Springs Intl Ann Clg 2% Condns DB=>MWB, ! Name
  42.1,                                   ! Maximum Dry-Bulb Temperature {C}
  14.7,                                   ! Daily Dry-Bulb Temperature Range {deltaC}
  22.2,                                   ! Humidity Indicating Conditions at Maximum Dry-Bulb {BasedOnField A3}
  99595,                                  ! Barometric Pressure {Pa}
  4.7,                                    ! Wind Speed {m/s}
  320,                                    ! Wind Direction {deg}
  0,                                      ! Sky Clearness
  0,                                      ! Rain Indicator
  0,                                      ! Snow Indicator
  21,                                     ! Day of Month
  7,                                      ! Month
  SummerDesignDay,                        ! Day Type
  0,                                      ! Daylight Saving Time Indicator
  Wetbulb,                                ! Humidity Indicating Type
  ,                                       ! Humidity Indicating Day Schedule Name
  DefaultMultipliers,                     ! Dry-Bulb Temperature Range Modifier Type
  ,                                       ! Dry-Bulb Temperature Range Modifier Schedule Name
  ASHRAETau,                              ! Solar Model Indicator
  ,                                       ! Beam Solar Day Schedule Name
  ,                                       ! Diffuse Solar Day Schedule Name
  0.485,                                  ! ASHRAE Taub {dimensionless}
  1.942;                                  ! ASHRAE Taud {dimensionless}

OS:ComponentData,
  {3822b524-b776-46b4-8d97-fe79855c0353}, ! Handle
  Component Data 1,                       ! Name
  {3468e59d-2342-4416-bb13-571dc07a3214}, ! UUID
  {c13bea2c-ff70-49a5-a13e-171c80afb897}, ! Version UUID
  1366306530,                             ! Creation Timestamp
  1366306530,                             ! Version Timestamp
  {6b4dba9a-350f-4b6e-809a-7179fd4ba954}; ! Name of Object 1

