
OS:Version,
  {07ce787a-670d-49dd-8a27-4a2a96e5d591}, ! Handle
  0.9.3;                                  ! Version Identifier

OS:SizingPeriod:DesignDay,
  {073c2c41-64a7-4f44-bb23-b2f25616a8e4}, ! Handle
  Seattle Seattle Tacoma Intl A Ann Clg 1% Condns WB=>MDB, ! Name
  26,                                     ! Maximum Dry-Bulb Temperature {C}
  10.4,                                   ! Daily Dry-Bulb Temperature Range {deltaC}
  18.2,                                   ! Humidity Indicating Conditions at Maximum Dry-Bulb {BasedOnField A3}
  99868,                                  ! Barometric Pressure {Pa}
  4.2,                                    ! Wind Speed {m/s}
  350,                                    ! Wind Direction {deg}
  0,                                      ! Sky Clearness
  0,                                      ! Rain Indicator
  0,                                      ! Snow Indicator
  21,                                     ! Day of Month
  8,                                      ! Month
  SummerDesignDay,                        ! Day Type
  0,                                      ! Daylight Saving Time Indicator
  Wetbulb,                                ! Humidity Indicating Type
  ,                                       ! Humidity Indicating Day Schedule Name
  DefaultMultipliers,                     ! Dry-Bulb Temperature Range Modifier Type
  ,                                       ! Dry-Bulb Temperature Range Modifier Schedule Name
  ASHRAETau,                              ! Solar Model Indicator
  ,                                       ! Beam Solar Day Schedule Name
  ,                                       ! Diffuse Solar Day Schedule Name
  0.352,                                  ! ASHRAE Taub {dimensionless}
  2.561;                                  ! ASHRAE Taud {dimensionless}

OS:ComponentData,
  {232bb7f0-863f-49d8-96da-a56aa5d79a37}, ! Handle
  Component Data 1,                       ! Name
  {f5bad53c-44bd-4de7-9900-e1f8416e9af3}, ! UUID
  {605c992b-0468-47cd-81f7-9ab7fea0d4e2}, ! Version UUID
  1366311365,                             ! Creation Timestamp
  1366311365,                             ! Version Timestamp
  {073c2c41-64a7-4f44-bb23-b2f25616a8e4}; ! Name of Object 1

