
OS:Version,
  {e2597990-cd76-43ae-8de0-ce391820cb52}, ! Handle
  0.9.3;                                  ! Version Identifier

OS:SizingPeriod:DesignDay,
  {affc51ce-a093-47b1-986e-0c860acc5331}, ! Handle
  Wilkes-Barre/Scranton Ann Clg 2% Condns DP=>MDB, ! Name
  24.5,                                   ! Maximum Dry-Bulb Temperature {C}
  10.8,                                   ! Daily Dry-Bulb Temperature Range {deltaC}
  20.7,                                   ! Humidity Indicating Conditions at Maximum Dry-Bulb {BasedOnField A3}
  97901,                                  ! Barometric Pressure {Pa}
  4.5,                                    ! Wind Speed {m/s}
  240,                                    ! Wind Direction {deg}
  0,                                      ! Sky Clearness
  0,                                      ! Rain Indicator
  0,                                      ! Snow Indicator
  21,                                     ! Day of Month
  7,                                      ! Month
  SummerDesignDay,                        ! Day Type
  0,                                      ! Daylight Saving Time Indicator
  Dewpoint,                               ! Humidity Indicating Type
  ,                                       ! Humidity Indicating Day Schedule Name
  DefaultMultipliers,                     ! Dry-Bulb Temperature Range Modifier Type
  ,                                       ! Dry-Bulb Temperature Range Modifier Schedule Name
  ASHRAETau,                              ! Solar Model Indicator
  ,                                       ! Beam Solar Day Schedule Name
  ,                                       ! Diffuse Solar Day Schedule Name
  0.477,                                  ! ASHRAE Taub {dimensionless}
  1.945;                                  ! ASHRAE Taud {dimensionless}

OS:ComponentData,
  {f6f40d13-cc74-473c-8083-836c1bbab086}, ! Handle
  Component Data 1,                       ! Name
  {5d4b71c4-6cc2-4e0b-b1cb-eb429c81ea7e}, ! UUID
  {61e1d9d5-cc43-4c63-ae20-8aa2e6e19290}, ! Version UUID
  1366310262,                             ! Creation Timestamp
  1366310262,                             ! Version Timestamp
  {affc51ce-a093-47b1-986e-0c860acc5331}; ! Name of Object 1

