
OS:Version,
  {18fc7d22-40e4-46b4-9dfb-c87644105b0e}, ! Handle
  0.9.3;                                  ! Version Identifier

OS:SizingPeriod:DesignDay,
  {d8602540-1fa8-4440-ab9d-351a1537d858}, ! Handle
  Madison Ann Clg 1% Condns DB=>MWB,      ! Name
  30.5,                                   ! Maximum Dry-Bulb Temperature {C}
  11.1,                                   ! Daily Dry-Bulb Temperature Range {deltaC}
  22.7,                                   ! Humidity Indicating Conditions at Maximum Dry-Bulb {BasedOnField A3}
  98193,                                  ! Barometric Pressure {Pa}
  5.1,                                    ! Wind Speed {m/s}
  180,                                    ! Wind Direction {deg}
  0,                                      ! Sky Clearness
  0,                                      ! Rain Indicator
  0,                                      ! Snow Indicator
  21,                                     ! Day of Month
  7,                                      ! Month
  SummerDesignDay,                        ! Day Type
  0,                                      ! Daylight Saving Time Indicator
  Wetbulb,                                ! Humidity Indicating Type
  ,                                       ! Humidity Indicating Day Schedule Name
  DefaultMultipliers,                     ! Dry-Bulb Temperature Range Modifier Type
  ,                                       ! Dry-Bulb Temperature Range Modifier Schedule Name
  ASHRAETau,                              ! Solar Model Indicator
  ,                                       ! Beam Solar Day Schedule Name
  ,                                       ! Diffuse Solar Day Schedule Name
  0.435,                                  ! ASHRAE Taub {dimensionless}
  2.109;                                  ! ASHRAE Taud {dimensionless}

