
OS:Version,
  {3aa21cb9-3bc5-4baf-92e4-3e4411a4e65d}, ! Handle
  0.9.3;                                  ! Version Identifier

OS:SizingPeriod:DesignDay,
  {a11247a7-3851-4c0b-82eb-ed4166ceeb34}, ! Handle
  TULSA Ann Clg 2% Condns Enth=>MDB,      ! Name
  32.3,                                   ! Maximum Dry-Bulb Temperature {C}
  10.5,                                   ! Daily Dry-Bulb Temperature Range {deltaC}
  77500,                                  ! Humidity Indicating Conditions at Maximum Dry-Bulb {BasedOnField A3}
  98875,                                  ! Barometric Pressure {Pa}
  4.9,                                    ! Wind Speed {m/s}
  190,                                    ! Wind Direction {deg}
  0,                                      ! Sky Clearness
  0,                                      ! Rain Indicator
  0,                                      ! Snow Indicator
  21,                                     ! Day of Month
  7,                                      ! Month
  SummerDesignDay,                        ! Day Type
  0,                                      ! Daylight Saving Time Indicator
  Enthalpy,                               ! Humidity Indicating Type
  ,                                       ! Humidity Indicating Day Schedule Name
  DefaultMultipliers,                     ! Dry-Bulb Temperature Range Modifier Type
  ,                                       ! Dry-Bulb Temperature Range Modifier Schedule Name
  ASHRAETau,                              ! Solar Model Indicator
  ,                                       ! Beam Solar Day Schedule Name
  ,                                       ! Diffuse Solar Day Schedule Name
  0.453,                                  ! ASHRAE Taub {dimensionless}
  2.105;                                  ! ASHRAE Taud {dimensionless}

OS:ComponentData,
  {e75d2ecd-2480-4eb4-ba57-d9e05729d104}, ! Handle
  Component Data 1,                       ! Name
  {28b5435d-ab72-4170-963c-a1ba38ba766e}, ! UUID
  {e899a178-3ffd-43bf-95ad-daffcf5249e8}, ! Version UUID
  1366309951,                             ! Creation Timestamp
  1366309951,                             ! Version Timestamp
  {a11247a7-3851-4c0b-82eb-ed4166ceeb34}; ! Name of Object 1

