
OS:Version,
  {58d0467e-4314-4fb3-aa3a-e0ab538f35ef}, ! Handle
  0.9.3;                                  ! Version Identifier

OS:SizingPeriod:DesignDay,
  {61cd4a62-03c7-40b2-a238-60f434ffb19d}, ! Handle
  Vance Afb Ann Htg 99.6% Condns DB,      ! Name
  -14.1,                                  ! Maximum Dry-Bulb Temperature {C}
  0,                                      ! Daily Dry-Bulb Temperature Range {deltaC}
  -14.1,                                  ! Humidity Indicating Conditions at Maximum Dry-Bulb {BasedOnField A3}
  96519,                                  ! Barometric Pressure {Pa}
  5.4,                                    ! Wind Speed {m/s}
  10,                                     ! Wind Direction {deg}
  0,                                      ! Sky Clearness
  0,                                      ! Rain Indicator
  0,                                      ! Snow Indicator
  21,                                     ! Day of Month
  1,                                      ! Month
  WinterDesignDay,                        ! Day Type
  0,                                      ! Daylight Saving Time Indicator
  Wetbulb,                                ! Humidity Indicating Type
  ,                                       ! Humidity Indicating Day Schedule Name
  DefaultMultipliers,                     ! Dry-Bulb Temperature Range Modifier Type
  ,                                       ! Dry-Bulb Temperature Range Modifier Schedule Name
  ASHRAEClearSky;                         ! Solar Model Indicator

OS:ComponentData,
  {0f00de55-77fe-42df-be8e-202152b8f0d8}, ! Handle
  Component Data 1,                       ! Name
  {5e395a66-4a1e-4a85-a6d1-ab3f353256b2}, ! UUID
  {341d07e6-1ae1-46d0-9ff0-3e54f37bd159}, ! Version UUID
  1366309961,                             ! Creation Timestamp
  1366309961,                             ! Version Timestamp
  {61cd4a62-03c7-40b2-a238-60f434ffb19d}; ! Name of Object 1

