
OS:Version,
  {b68d4db6-92ef-4037-a6e3-de546c1b1a88}, ! Handle
  0.9.3;                                  ! Version Identifier

OS:SizingPeriod:DesignDay,
  {952088b4-0059-46fb-92cb-3596d42d151b}, ! Handle
  MUSKEGON Ann Hum_n 99% Condns DP=>MCDB, ! Name
  -12.2,                                  ! Maximum Dry-Bulb Temperature {C}
  0,                                      ! Daily Dry-Bulb Temperature Range {deltaC}
  -16.9,                                  ! Humidity Indicating Conditions at Maximum Dry-Bulb {BasedOnField A3}
  99051,                                  ! Barometric Pressure {Pa}
  4.5,                                    ! Wind Speed {m/s}
  310,                                    ! Wind Direction {deg}
  0,                                      ! Sky Clearness
  0,                                      ! Rain Indicator
  0,                                      ! Snow Indicator
  21,                                     ! Day of Month
  1,                                      ! Month
  WinterDesignDay,                        ! Day Type
  0,                                      ! Daylight Saving Time Indicator
  Dewpoint,                               ! Humidity Indicating Type
  ,                                       ! Humidity Indicating Day Schedule Name
  DefaultMultipliers,                     ! Dry-Bulb Temperature Range Modifier Type
  ,                                       ! Dry-Bulb Temperature Range Modifier Schedule Name
  ASHRAEClearSky;                         ! Solar Model Indicator

OS:ComponentData,
  {bb1bf244-56a4-4470-9dc3-bfbdf16c6690}, ! Handle
  Component Data 1,                       ! Name
  {d6000035-4553-45fd-a2a4-f10cf6d334fc}, ! UUID
  {2d24ed88-4d0f-4541-befa-058c9909e287}, ! Version UUID
  1366308071,                             ! Creation Timestamp
  1366308071,                             ! Version Timestamp
  {952088b4-0059-46fb-92cb-3596d42d151b}; ! Name of Object 1

