
OS:Version,
  {bf7d98d9-bfd3-4ca0-bb8a-a988511f419e}, ! Handle
  0.9.3;                                  ! Version Identifier

OS:SizingPeriod:DesignDay,
  {fef75137-9e9d-4e8d-a83a-9f3d614e43de}, ! Handle
  Newark Ann Clg 2% Condns Enth=>MDB,     ! Name
  28.6,                                   ! Maximum Dry-Bulb Temperature {C}
  8.9,                                    ! Daily Dry-Bulb Temperature Range {deltaC}
  71500,                                  ! Humidity Indicating Conditions at Maximum Dry-Bulb {BasedOnField A3}
  101217,                                 ! Barometric Pressure {Pa}
  5.8,                                    ! Wind Speed {m/s}
  250,                                    ! Wind Direction {deg}
  0,                                      ! Sky Clearness
  0,                                      ! Rain Indicator
  0,                                      ! Snow Indicator
  21,                                     ! Day of Month
  7,                                      ! Month
  SummerDesignDay,                        ! Day Type
  0,                                      ! Daylight Saving Time Indicator
  Enthalpy,                               ! Humidity Indicating Type
  ,                                       ! Humidity Indicating Day Schedule Name
  DefaultMultipliers,                     ! Dry-Bulb Temperature Range Modifier Type
  ,                                       ! Dry-Bulb Temperature Range Modifier Schedule Name
  ASHRAETau,                              ! Solar Model Indicator
  ,                                       ! Beam Solar Day Schedule Name
  ,                                       ! Diffuse Solar Day Schedule Name
  0.528,                                  ! ASHRAE Taub {dimensionless}
  1.831;                                  ! ASHRAE Taud {dimensionless}

OS:ComponentData,
  {7c84e7be-8e07-475c-9a89-5141e978366b}, ! Handle
  Component Data 1,                       ! Name
  {3473984c-45be-4c88-9308-18924f77f279}, ! UUID
  {c8ba758c-84d5-4214-840a-44a7302d7bfa}, ! Version UUID
  1366309333,                             ! Creation Timestamp
  1366309333,                             ! Version Timestamp
  {fef75137-9e9d-4e8d-a83a-9f3d614e43de}; ! Name of Object 1

