
OS:Version,
  {983aea9f-52fb-490b-921e-627788fea2ed}, ! Handle
  0.9.3;                                  ! Version Identifier

OS:SizingPeriod:DesignDay,
  {380b3d1e-5a63-4717-8d70-237d78c59d78}, ! Handle
  Pipestone  Awos Ann Clg 2% Condns DB=>MWB, ! Name
  28.3,                                   ! Maximum Dry-Bulb Temperature {C}
  10.8,                                   ! Daily Dry-Bulb Temperature Range {deltaC}
  21.6,                                   ! Humidity Indicating Conditions at Maximum Dry-Bulb {BasedOnField A3}
  95129,                                  ! Barometric Pressure {Pa}
  5.7,                                    ! Wind Speed {m/s}
  190,                                    ! Wind Direction {deg}
  0,                                      ! Sky Clearness
  0,                                      ! Rain Indicator
  0,                                      ! Snow Indicator
  21,                                     ! Day of Month
  7,                                      ! Month
  SummerDesignDay,                        ! Day Type
  0,                                      ! Daylight Saving Time Indicator
  Wetbulb,                                ! Humidity Indicating Type
  ,                                       ! Humidity Indicating Day Schedule Name
  DefaultMultipliers,                     ! Dry-Bulb Temperature Range Modifier Type
  ,                                       ! Dry-Bulb Temperature Range Modifier Schedule Name
  ASHRAETau,                              ! Solar Model Indicator
  ,                                       ! Beam Solar Day Schedule Name
  ,                                       ! Diffuse Solar Day Schedule Name
  0.387,                                  ! ASHRAE Taub {dimensionless}
  2.294;                                  ! ASHRAE Taud {dimensionless}

OS:ComponentData,
  {94630cc5-4a0d-4523-90db-e78bf578bdd5}, ! Handle
  Component Data 1,                       ! Name
  {08914825-783a-4f07-bec7-d07ef37e89c8}, ! UUID
  {c2b10126-11be-44ba-b002-7f00d539ea58}, ! Version UUID
  1366308365,                             ! Creation Timestamp
  1366308365,                             ! Version Timestamp
  {380b3d1e-5a63-4717-8d70-237d78c59d78}; ! Name of Object 1

