
OS:Version,
  {3ca0ecfe-298b-43b7-bec0-694e7d7b07c5}, ! Handle
  0.9.3;                                  ! Version Identifier

OS:SizingPeriod:DesignDay,
  {c8161b1c-27b5-455a-b8b9-32b321302cfe}, ! Handle
  Nome Ann Clg 1% Condns DP=>MDB,         ! Name
  15.1,                                   ! Maximum Dry-Bulb Temperature {C}
  5.9,                                    ! Daily Dry-Bulb Temperature Range {deltaC}
  12.1,                                   ! Humidity Indicating Conditions at Maximum Dry-Bulb {BasedOnField A3}
  101241,                                 ! Barometric Pressure {Pa}
  4.8,                                    ! Wind Speed {m/s}
  260,                                    ! Wind Direction {deg}
  0,                                      ! Sky Clearness
  0,                                      ! Rain Indicator
  0,                                      ! Snow Indicator
  21,                                     ! Day of Month
  7,                                      ! Month
  SummerDesignDay,                        ! Day Type
  0,                                      ! Daylight Saving Time Indicator
  Dewpoint,                               ! Humidity Indicating Type
  ,                                       ! Humidity Indicating Day Schedule Name
  DefaultMultipliers,                     ! Dry-Bulb Temperature Range Modifier Type
  ,                                       ! Dry-Bulb Temperature Range Modifier Schedule Name
  ASHRAETau,                              ! Solar Model Indicator
  ,                                       ! Beam Solar Day Schedule Name
  ,                                       ! Diffuse Solar Day Schedule Name
  0.408,                                  ! ASHRAE Taub {dimensionless}
  2.08;                                   ! ASHRAE Taud {dimensionless}

OS:ComponentData,
  {1dcf4463-707b-457a-8e96-75c25ef31f9f}, ! Handle
  Component Data 1,                       ! Name
  {92a820c7-2b09-4042-aa29-6b5117a193c1}, ! UUID
  {5c2cb433-a35d-4786-ab05-b60737b55198}, ! Version UUID
  1366305456,                             ! Creation Timestamp
  1366305456,                             ! Version Timestamp
  {c8161b1c-27b5-455a-b8b9-32b321302cfe}; ! Name of Object 1

