
OS:Version,
  {5adb05fe-c45c-4f7e-be9d-ce9fbbfa63dc}, ! Handle
  0.9.3;                                  ! Version Identifier

OS:SizingPeriod:DesignDay,
  {56d9c894-8e81-42c4-9521-aeb3fe207a36}, ! Handle
  Roswell Industrial Air Park Ann Clg 1% Condns DP=>MDB, ! Name
  23.2,                                   ! Maximum Dry-Bulb Temperature {C}
  14.1,                                   ! Daily Dry-Bulb Temperature Range {deltaC}
  18.6,                                   ! Humidity Indicating Conditions at Maximum Dry-Bulb {BasedOnField A3}
  88660,                                  ! Barometric Pressure {Pa}
  5.3,                                    ! Wind Speed {m/s}
  140,                                    ! Wind Direction {deg}
  0,                                      ! Sky Clearness
  0,                                      ! Rain Indicator
  0,                                      ! Snow Indicator
  21,                                     ! Day of Month
  7,                                      ! Month
  SummerDesignDay,                        ! Day Type
  0,                                      ! Daylight Saving Time Indicator
  Dewpoint,                               ! Humidity Indicating Type
  ,                                       ! Humidity Indicating Day Schedule Name
  DefaultMultipliers,                     ! Dry-Bulb Temperature Range Modifier Type
  ,                                       ! Dry-Bulb Temperature Range Modifier Schedule Name
  ASHRAETau,                              ! Solar Model Indicator
  ,                                       ! Beam Solar Day Schedule Name
  ,                                       ! Diffuse Solar Day Schedule Name
  0.461,                                  ! ASHRAE Taub {dimensionless}
  1.916;                                  ! ASHRAE Taud {dimensionless}

OS:ComponentData,
  {d27c333c-55f5-427d-bfc9-e9fe4c3864ba}, ! Handle
  Component Data 1,                       ! Name
  {1127a4f5-e511-4e69-b404-6e78fbc07d6c}, ! UUID
  {136904f9-954e-4d7c-be4e-bf140f3828f9}, ! Version UUID
  1366309429,                             ! Creation Timestamp
  1366309429,                             ! Version Timestamp
  {56d9c894-8e81-42c4-9521-aeb3fe207a36}; ! Name of Object 1

