
OS:Version,
  {bc5f825d-f104-4de5-b05a-938ead6cacdd}, ! Handle
  0.9.3;                                  ! Version Identifier

OS:SizingPeriod:DesignDay,
  {71dc9602-8fe5-47b1-8343-bf5b4594ce64}, ! Handle
  PHILADELPHIA Ann Hum_n 99.6% Condns DP=>MCDB, ! Name
  -10.1,                                  ! Maximum Dry-Bulb Temperature {C}
  0,                                      ! Daily Dry-Bulb Temperature Range {deltaC}
  -20.5,                                  ! Humidity Indicating Conditions at Maximum Dry-Bulb {BasedOnField A3}
  101217,                                 ! Barometric Pressure {Pa}
  2.7,                                    ! Wind Speed {m/s}
  300,                                    ! Wind Direction {deg}
  0,                                      ! Sky Clearness
  0,                                      ! Rain Indicator
  0,                                      ! Snow Indicator
  21,                                     ! Day of Month
  1,                                      ! Month
  WinterDesignDay,                        ! Day Type
  0,                                      ! Daylight Saving Time Indicator
  Dewpoint,                               ! Humidity Indicating Type
  ,                                       ! Humidity Indicating Day Schedule Name
  DefaultMultipliers,                     ! Dry-Bulb Temperature Range Modifier Type
  ,                                       ! Dry-Bulb Temperature Range Modifier Schedule Name
  ASHRAEClearSky;                         ! Solar Model Indicator

OS:ComponentData,
  {708dd453-4b69-4ecf-844c-4008213e43e2}, ! Handle
  Component Data 1,                       ! Name
  {496ed151-7775-49f8-9486-ffd2e455368b}, ! UUID
  {c15d110c-27c4-4ae4-93d9-abf1941ffec1}, ! Version UUID
  1366310213,                             ! Creation Timestamp
  1366310213,                             ! Version Timestamp
  {71dc9602-8fe5-47b1-8343-bf5b4594ce64}; ! Name of Object 1

