
OS:Version,
  {a77c28d2-210b-4cc8-9c59-959b549c5875}, ! Handle
  0.9.3;                                  ! Version Identifier

OS:SizingPeriod:DesignDay,
  {c3b4c680-1683-4e36-867e-b5090b76c442}, ! Handle
  West Palm Beach Ann Clg 1% Condns DP=>MDB, ! Name
  28.6,                                   ! Maximum Dry-Bulb Temperature {C}
  7.3,                                    ! Daily Dry-Bulb Temperature Range {deltaC}
  25.2,                                   ! Humidity Indicating Conditions at Maximum Dry-Bulb {BasedOnField A3}
  101253,                                 ! Barometric Pressure {Pa}
  5.2,                                    ! Wind Speed {m/s}
  130,                                    ! Wind Direction {deg}
  0,                                      ! Sky Clearness
  0,                                      ! Rain Indicator
  0,                                      ! Snow Indicator
  21,                                     ! Day of Month
  8,                                      ! Month
  SummerDesignDay,                        ! Day Type
  0,                                      ! Daylight Saving Time Indicator
  Dewpoint,                               ! Humidity Indicating Type
  ,                                       ! Humidity Indicating Day Schedule Name
  DefaultMultipliers,                     ! Dry-Bulb Temperature Range Modifier Type
  ,                                       ! Dry-Bulb Temperature Range Modifier Schedule Name
  ASHRAETau,                              ! Solar Model Indicator
  ,                                       ! Beam Solar Day Schedule Name
  ,                                       ! Diffuse Solar Day Schedule Name
  0.497,                                  ! ASHRAE Taub {dimensionless}
  2.018;                                  ! ASHRAE Taud {dimensionless}

OS:ComponentData,
  {3e8893a5-19e8-421f-9ef6-2b3ddcfe9590}, ! Handle
  Component Data 1,                       ! Name
  {a526008f-4596-4464-a986-295049276f34}, ! UUID
  {5f230971-b39a-44d3-b0c4-641e402c0ba8}, ! Version UUID
  1366306952,                             ! Creation Timestamp
  1366306952,                             ! Version Timestamp
  {c3b4c680-1683-4e36-867e-b5090b76c442}; ! Name of Object 1

