
OS:Version,
  {c20446e6-9800-4b58-b788-2cba28a1b44c}, ! Handle
  0.9.3;                                  ! Version Identifier

OS:SizingPeriod:DesignDay,
  {f6341e5e-1210-46b8-aa6d-03a4a1b76396}, ! Handle
  South Bend Michiana Rgnl Ap Ann Htg Wind 99% Condns WS=>MCDB, ! Name
  -3.9,                                   ! Maximum Dry-Bulb Temperature {C}
  0,                                      ! Daily Dry-Bulb Temperature Range {deltaC}
  -3.9,                                   ! Humidity Indicating Conditions at Maximum Dry-Bulb {BasedOnField A3}
  98522,                                  ! Barometric Pressure {Pa}
  11.2,                                   ! Wind Speed {m/s}
  230,                                    ! Wind Direction {deg}
  0,                                      ! Sky Clearness
  0,                                      ! Rain Indicator
  0,                                      ! Snow Indicator
  21,                                     ! Day of Month
  1,                                      ! Month
  WinterDesignDay,                        ! Day Type
  0,                                      ! Daylight Saving Time Indicator
  Wetbulb,                                ! Humidity Indicating Type
  ,                                       ! Humidity Indicating Day Schedule Name
  DefaultMultipliers,                     ! Dry-Bulb Temperature Range Modifier Type
  ,                                       ! Dry-Bulb Temperature Range Modifier Schedule Name
  ASHRAEClearSky;                         ! Solar Model Indicator

OS:ComponentData,
  {0fa14c65-c15b-4e67-96a2-5a5b3973e9c7}, ! Handle
  Component Data 1,                       ! Name
  {c33f2ea8-c8cb-4fde-8025-75c7f9c512eb}, ! UUID
  {77e94016-0aee-4deb-8aad-137f15a3890b}, ! Version UUID
  1366307483,                             ! Creation Timestamp
  1366307483,                             ! Version Timestamp
  {f6341e5e-1210-46b8-aa6d-03a4a1b76396}; ! Name of Object 1

