
OS:Version,
  {e597aa1c-6d47-4128-8ce6-14bef357a0b3}, ! Handle
  0.9.3;                                  ! Version Identifier

OS:SizingPeriod:DesignDay,
  {d5b6468e-0cbd-49e0-9b2c-39fe32e4a812}, ! Handle
  McGrath Ann Htg 99.6% Condns DB,        ! Name
  -43.5,                                  ! Maximum Dry-Bulb Temperature {C}
  0,                                      ! Daily Dry-Bulb Temperature Range {deltaC}
  -43.5,                                  ! Humidity Indicating Conditions at Maximum Dry-Bulb {BasedOnField A3}
  100094,                                 ! Barometric Pressure {Pa}
  0.4,                                    ! Wind Speed {m/s}
  300,                                    ! Wind Direction {deg}
  0,                                      ! Sky Clearness
  0,                                      ! Rain Indicator
  0,                                      ! Snow Indicator
  21,                                     ! Day of Month
  1,                                      ! Month
  WinterDesignDay,                        ! Day Type
  0,                                      ! Daylight Saving Time Indicator
  Wetbulb,                                ! Humidity Indicating Type
  ,                                       ! Humidity Indicating Day Schedule Name
  DefaultMultipliers,                     ! Dry-Bulb Temperature Range Modifier Type
  ,                                       ! Dry-Bulb Temperature Range Modifier Schedule Name
  ASHRAEClearSky;                         ! Solar Model Indicator

OS:ComponentData,
  {5c3b9071-7b9f-47ab-b4d6-38a1d18c5436}, ! Handle
  Component Data 1,                       ! Name
  {28d5ca63-dd2c-43ca-a9e7-ff5561d391aa}, ! UUID
  {55e5b024-c9a9-4424-b358-4c54a34f1da4}, ! Version UUID
  1366305410,                             ! Creation Timestamp
  1366305410,                             ! Version Timestamp
  {d5b6468e-0cbd-49e0-9b2c-39fe32e4a812}; ! Name of Object 1

