
OS:Version,
  {bb10f068-c78f-4c10-833e-054bedb83db2}, ! Handle
  0.9.3;                                  ! Version Identifier

OS:SizingPeriod:DesignDay,
  {ffae94f2-1ecc-4a9c-a3cf-76db5a035b42}, ! Handle
  Monroe Regional Ap Ann Htg Wind 99.6% Condns WS=>MCDB, ! Name
  9.4,                                    ! Maximum Dry-Bulb Temperature {C}
  0,                                      ! Daily Dry-Bulb Temperature Range {deltaC}
  9.4,                                    ! Humidity Indicating Conditions at Maximum Dry-Bulb {BasedOnField A3}
  100845,                                 ! Barometric Pressure {Pa}
  10.1,                                   ! Wind Speed {m/s}
  10,                                     ! Wind Direction {deg}
  0,                                      ! Sky Clearness
  0,                                      ! Rain Indicator
  0,                                      ! Snow Indicator
  21,                                     ! Day of Month
  1,                                      ! Month
  WinterDesignDay,                        ! Day Type
  0,                                      ! Daylight Saving Time Indicator
  Wetbulb,                                ! Humidity Indicating Type
  ,                                       ! Humidity Indicating Day Schedule Name
  DefaultMultipliers,                     ! Dry-Bulb Temperature Range Modifier Type
  ,                                       ! Dry-Bulb Temperature Range Modifier Schedule Name
  ASHRAEClearSky;                         ! Solar Model Indicator

OS:ComponentData,
  {86582b15-f899-4473-afce-a2ea82be9f93}, ! Handle
  Component Data 1,                       ! Name
  {abbc7097-b675-4c4e-892c-7f6dc4073271}, ! UUID
  {e1d13e73-e870-4d77-b9c9-f8b03e35dfc2}, ! Version UUID
  1366307735,                             ! Creation Timestamp
  1366307735,                             ! Version Timestamp
  {ffae94f2-1ecc-4a9c-a3cf-76db5a035b42}; ! Name of Object 1

