
OS:Version,
  {3dd0c297-17f6-4307-be76-8a3f6093a7ef}, ! Handle
  0.9.3;                                  ! Version Identifier

OS:SizingPeriod:DesignDay,
  {391a7b30-e314-43e7-95da-7d9610900356}, ! Handle
  Tallahassee Regional Ap  Isis Ann Clg 1% Condns Enth=>MDB, ! Name
  31.2,                                   ! Maximum Dry-Bulb Temperature {C}
  10.6,                                   ! Daily Dry-Bulb Temperature Range {deltaC}
  80500,                                  ! Humidity Indicating Conditions at Maximum Dry-Bulb {BasedOnField A3}
  101073,                                 ! Barometric Pressure {Pa}
  3.4,                                    ! Wind Speed {m/s}
  10,                                     ! Wind Direction {deg}
  0,                                      ! Sky Clearness
  0,                                      ! Rain Indicator
  0,                                      ! Snow Indicator
  21,                                     ! Day of Month
  7,                                      ! Month
  SummerDesignDay,                        ! Day Type
  0,                                      ! Daylight Saving Time Indicator
  Enthalpy,                               ! Humidity Indicating Type
  ,                                       ! Humidity Indicating Day Schedule Name
  DefaultMultipliers,                     ! Dry-Bulb Temperature Range Modifier Type
  ,                                       ! Dry-Bulb Temperature Range Modifier Schedule Name
  ASHRAETau,                              ! Solar Model Indicator
  ,                                       ! Beam Solar Day Schedule Name
  ,                                       ! Diffuse Solar Day Schedule Name
  0.537,                                  ! ASHRAE Taub {dimensionless}
  1.879;                                  ! ASHRAE Taud {dimensionless}

OS:ComponentData,
  {2b479d03-b3e3-44bf-bc0a-e6c584543ce9}, ! Handle
  Component Data 1,                       ! Name
  {1a666cf3-40b9-4e2f-9221-09a3d02a64a2}, ! UUID
  {723b451f-4df6-4d9f-abc5-a5b071052e1d}, ! Version UUID
  1366306928,                             ! Creation Timestamp
  1366306928,                             ! Version Timestamp
  {391a7b30-e314-43e7-95da-7d9610900356}; ! Name of Object 1

