
OS:Version,
  {9e2bd520-142e-45b0-ba81-2baf6cb6b17b}, ! Handle
  0.9.3;                                  ! Version Identifier

OS:SizingPeriod:DesignDay,
  {36ece4ed-fbd7-4bef-8fff-9e02d182821e}, ! Handle
  Wichita Falls Municipal Arpt Ann Clg 2% Condns DB=>MWB, ! Name
  36.5,                                   ! Maximum Dry-Bulb Temperature {C}
  13,                                     ! Daily Dry-Bulb Temperature Range {deltaC}
  23,                                     ! Humidity Indicating Conditions at Maximum Dry-Bulb {BasedOnField A3}
  97609,                                  ! Barometric Pressure {Pa}
  5.5,                                    ! Wind Speed {m/s}
  180,                                    ! Wind Direction {deg}
  0,                                      ! Sky Clearness
  0,                                      ! Rain Indicator
  0,                                      ! Snow Indicator
  21,                                     ! Day of Month
  7,                                      ! Month
  SummerDesignDay,                        ! Day Type
  0,                                      ! Daylight Saving Time Indicator
  Wetbulb,                                ! Humidity Indicating Type
  ,                                       ! Humidity Indicating Day Schedule Name
  DefaultMultipliers,                     ! Dry-Bulb Temperature Range Modifier Type
  ,                                       ! Dry-Bulb Temperature Range Modifier Schedule Name
  ASHRAETau,                              ! Solar Model Indicator
  ,                                       ! Beam Solar Day Schedule Name
  ,                                       ! Diffuse Solar Day Schedule Name
  0.44,                                   ! ASHRAE Taub {dimensionless}
  2.15;                                   ! ASHRAE Taud {dimensionless}

OS:ComponentData,
  {c3b93193-0e34-4341-8543-3913a663ff16}, ! Handle
  Component Data 1,                       ! Name
  {e72504d6-248f-4832-9438-717f06ec8d75}, ! UUID
  {500b2b4d-3939-45b8-a60e-103de0e5e202}, ! Version UUID
  1366310936,                             ! Creation Timestamp
  1366310936,                             ! Version Timestamp
  {36ece4ed-fbd7-4bef-8fff-9e02d182821e}; ! Name of Object 1

