
OS:Version,
  {debe6c7b-a951-435e-9724-ffa48712f481}, ! Handle
  0.9.3;                                  ! Version Identifier

OS:SizingPeriod:DesignDay,
  {283984f1-2435-415b-9f26-386245d0bb2c}, ! Handle
  Tacoma Narrows Ann Clg 2% Condns DB=>MWB, ! Name
  25,                                     ! Maximum Dry-Bulb Temperature {C}
  10.7,                                   ! Daily Dry-Bulb Temperature Range {deltaC}
  16.5,                                   ! Humidity Indicating Conditions at Maximum Dry-Bulb {BasedOnField A3}
  100237,                                 ! Barometric Pressure {Pa}
  3.5,                                    ! Wind Speed {m/s}
  10,                                     ! Wind Direction {deg}
  0,                                      ! Sky Clearness
  0,                                      ! Rain Indicator
  0,                                      ! Snow Indicator
  21,                                     ! Day of Month
  7,                                      ! Month
  SummerDesignDay,                        ! Day Type
  0,                                      ! Daylight Saving Time Indicator
  Wetbulb,                                ! Humidity Indicating Type
  ,                                       ! Humidity Indicating Day Schedule Name
  DefaultMultipliers,                     ! Dry-Bulb Temperature Range Modifier Type
  ,                                       ! Dry-Bulb Temperature Range Modifier Schedule Name
  ASHRAETau,                              ! Solar Model Indicator
  ,                                       ! Beam Solar Day Schedule Name
  ,                                       ! Diffuse Solar Day Schedule Name
  0.36,                                   ! ASHRAE Taub {dimensionless}
  2.5;                                    ! ASHRAE Taud {dimensionless}

OS:ComponentData,
  {acfbed8d-2c46-4bc9-8ffc-59d73fbd2812}, ! Handle
  Component Data 1,                       ! Name
  {5d0be82f-1623-48e8-8fac-b0798acdb842}, ! UUID
  {3861aac8-ca84-4125-905e-8bf246d482d9}, ! Version UUID
  1366311411,                             ! Creation Timestamp
  1366311411,                             ! Version Timestamp
  {283984f1-2435-415b-9f26-386245d0bb2c}; ! Name of Object 1

