
OS:Version,
  {67f94cbf-ad0b-495e-b53d-6cc769cdd934}, ! Handle
  0.9.3;                                  ! Version Identifier

OS:SizingPeriod:DesignDay,
  {b01eb7da-3dc1-43a2-8365-fc6c3d2e7f3a}, ! Handle
  Norfolk Nas Ann Clg .4% Condns Enth=>MDB, ! Name
  31.8,                                   ! Maximum Dry-Bulb Temperature {C}
  7.9,                                    ! Daily Dry-Bulb Temperature Range {deltaC}
  82700,                                  ! Humidity Indicating Conditions at Maximum Dry-Bulb {BasedOnField A3}
  101205,                                 ! Barometric Pressure {Pa}
  4.3,                                    ! Wind Speed {m/s}
  210,                                    ! Wind Direction {deg}
  0,                                      ! Sky Clearness
  0,                                      ! Rain Indicator
  0,                                      ! Snow Indicator
  21,                                     ! Day of Month
  7,                                      ! Month
  SummerDesignDay,                        ! Day Type
  0,                                      ! Daylight Saving Time Indicator
  Enthalpy,                               ! Humidity Indicating Type
  ,                                       ! Humidity Indicating Day Schedule Name
  DefaultMultipliers,                     ! Dry-Bulb Temperature Range Modifier Type
  ,                                       ! Dry-Bulb Temperature Range Modifier Schedule Name
  ASHRAETau,                              ! Solar Model Indicator
  ,                                       ! Beam Solar Day Schedule Name
  ,                                       ! Diffuse Solar Day Schedule Name
  0.593,                                  ! ASHRAE Taub {dimensionless}
  1.694;                                  ! ASHRAE Taud {dimensionless}

OS:ComponentData,
  {a24a859d-c582-4521-8f96-2f62746ee04d}, ! Handle
  Component Data 1,                       ! Name
  {4583f909-6038-41c6-a0fb-12cfa97e39ff}, ! UUID
  {a12a0f18-4333-481e-b46b-e165ad6809ac}, ! Version UUID
  1366311141,                             ! Creation Timestamp
  1366311141,                             ! Version Timestamp
  {b01eb7da-3dc1-43a2-8365-fc6c3d2e7f3a}; ! Name of Object 1

