
OS:Version,
  {f8f958bf-47b4-4c2d-b6b8-244a06e8c306}, ! Handle
  0.9.3;                                  ! Version Identifier

OS:SizingPeriod:DesignDay,
  {e4a60516-ca0e-45d6-957a-4a5bfc435d7c}, ! Handle
  Willow Grove Nas Ann Htg Wind 99.6% Condns WS=>MCDB, ! Name
  0.3,                                    ! Maximum Dry-Bulb Temperature {C}
  0,                                      ! Daily Dry-Bulb Temperature Range {deltaC}
  0.3,                                    ! Humidity Indicating Conditions at Maximum Dry-Bulb {BasedOnField A3}
  100106,                                 ! Barometric Pressure {Pa}
  9.3,                                    ! Wind Speed {m/s}
  300,                                    ! Wind Direction {deg}
  0,                                      ! Sky Clearness
  0,                                      ! Rain Indicator
  0,                                      ! Snow Indicator
  21,                                     ! Day of Month
  1,                                      ! Month
  WinterDesignDay,                        ! Day Type
  0,                                      ! Daylight Saving Time Indicator
  Wetbulb,                                ! Humidity Indicating Type
  ,                                       ! Humidity Indicating Day Schedule Name
  DefaultMultipliers,                     ! Dry-Bulb Temperature Range Modifier Type
  ,                                       ! Dry-Bulb Temperature Range Modifier Schedule Name
  ASHRAEClearSky;                         ! Solar Model Indicator

OS:ComponentData,
  {c3c3920e-3317-4a69-9f21-676c4277bbe9}, ! Handle
  Component Data 1,                       ! Name
  {5a10c69f-0e51-434c-9c15-8a765ea94778}, ! UUID
  {3a1bf1e5-9f14-4329-94d7-80bc03a70ab6}, ! Version UUID
  1366310283,                             ! Creation Timestamp
  1366310283,                             ! Version Timestamp
  {e4a60516-ca0e-45d6-957a-4a5bfc435d7c}; ! Name of Object 1

