
OS:Version,
  {2c8f589b-c0c9-48b4-9a1e-268ef6daf16d}, ! Handle
  0.9.3;                                  ! Version Identifier

OS:SizingPeriod:DesignDay,
  {f053317c-d2c1-40ec-8ceb-6e3805e766bd}, ! Handle
  Oceana Nas Ann Clg .4% Condns DB=>MWB,  ! Name
  33.8,                                   ! Maximum Dry-Bulb Temperature {C}
  8.4,                                    ! Daily Dry-Bulb Temperature Range {deltaC}
  25.2,                                   ! Humidity Indicating Conditions at Maximum Dry-Bulb {BasedOnField A3}
  101229,                                 ! Barometric Pressure {Pa}
  4.4,                                    ! Wind Speed {m/s}
  220,                                    ! Wind Direction {deg}
  0,                                      ! Sky Clearness
  0,                                      ! Rain Indicator
  0,                                      ! Snow Indicator
  21,                                     ! Day of Month
  7,                                      ! Month
  SummerDesignDay,                        ! Day Type
  0,                                      ! Daylight Saving Time Indicator
  Wetbulb,                                ! Humidity Indicating Type
  ,                                       ! Humidity Indicating Day Schedule Name
  DefaultMultipliers,                     ! Dry-Bulb Temperature Range Modifier Type
  ,                                       ! Dry-Bulb Temperature Range Modifier Schedule Name
  ASHRAETau,                              ! Solar Model Indicator
  ,                                       ! Beam Solar Day Schedule Name
  ,                                       ! Diffuse Solar Day Schedule Name
  0.585,                                  ! ASHRAE Taub {dimensionless}
  1.719;                                  ! ASHRAE Taud {dimensionless}

OS:ComponentData,
  {8641439a-b632-4476-b574-acee95c420e0}, ! Handle
  Component Data 1,                       ! Name
  {578b523c-dfeb-4db8-8c3d-328261616948}, ! UUID
  {07eb9318-8831-4d99-a633-56a7fd92eb80}, ! Version UUID
  1366311145,                             ! Creation Timestamp
  1366311145,                             ! Version Timestamp
  {f053317c-d2c1-40ec-8ceb-6e3805e766bd}; ! Name of Object 1

