
OS:Version,
  {fc26deb6-12bf-46d2-acac-3d1b784b9bf3}, ! Handle
  0.9.3;                                  ! Version Identifier

OS:SizingPeriod:DesignDay,
  {643fe660-ae95-4c9d-8365-628265b3a531}, ! Handle
  Naples Municipal Ann Hum_n 99% Condns DP=>MCDB, ! Name
  11.4,                                   ! Maximum Dry-Bulb Temperature {C}
  0,                                      ! Daily Dry-Bulb Temperature Range {deltaC}
  1.4,                                    ! Humidity Indicating Conditions at Maximum Dry-Bulb {BasedOnField A3}
  101289,                                 ! Barometric Pressure {Pa}
  2.4,                                    ! Wind Speed {m/s}
  30,                                     ! Wind Direction {deg}
  0,                                      ! Sky Clearness
  0,                                      ! Rain Indicator
  0,                                      ! Snow Indicator
  21,                                     ! Day of Month
  1,                                      ! Month
  WinterDesignDay,                        ! Day Type
  0,                                      ! Daylight Saving Time Indicator
  Dewpoint,                               ! Humidity Indicating Type
  ,                                       ! Humidity Indicating Day Schedule Name
  DefaultMultipliers,                     ! Dry-Bulb Temperature Range Modifier Type
  ,                                       ! Dry-Bulb Temperature Range Modifier Schedule Name
  ASHRAEClearSky;                         ! Solar Model Indicator

OS:ComponentData,
  {61a19741-389c-446f-b151-e4187213e13d}, ! Handle
  Component Data 1,                       ! Name
  {625faa59-c547-4f91-a20d-5213ec128e90}, ! UUID
  {b07a0c41-d991-4beb-954e-451583ba7f01}, ! Version UUID
  1366306869,                             ! Creation Timestamp
  1366306869,                             ! Version Timestamp
  {643fe660-ae95-4c9d-8365-628265b3a531}; ! Name of Object 1

