
OS:Version,
  {1caecac7-08fc-4de9-a56b-2a33bc860c45}, ! Handle
  0.9.3;                                  ! Version Identifier

OS:SizingPeriod:DesignDay,
  {006815dc-9f32-4638-963f-6c5a30d92e66}, ! Handle
  St Paul Downtown Ap Ann Clg 2% Condns WB=>MDB, ! Name
  27.5,                                   ! Maximum Dry-Bulb Temperature {C}
  10.3,                                   ! Daily Dry-Bulb Temperature Range {deltaC}
  22.8,                                   ! Humidity Indicating Conditions at Maximum Dry-Bulb {BasedOnField A3}
  98710,                                  ! Barometric Pressure {Pa}
  5.1,                                    ! Wind Speed {m/s}
  180,                                    ! Wind Direction {deg}
  0,                                      ! Sky Clearness
  0,                                      ! Rain Indicator
  0,                                      ! Snow Indicator
  21,                                     ! Day of Month
  7,                                      ! Month
  SummerDesignDay,                        ! Day Type
  0,                                      ! Daylight Saving Time Indicator
  Wetbulb,                                ! Humidity Indicating Type
  ,                                       ! Humidity Indicating Day Schedule Name
  DefaultMultipliers,                     ! Dry-Bulb Temperature Range Modifier Type
  ,                                       ! Dry-Bulb Temperature Range Modifier Schedule Name
  ASHRAETau,                              ! Solar Model Indicator
  ,                                       ! Beam Solar Day Schedule Name
  ,                                       ! Diffuse Solar Day Schedule Name
  0.417,                                  ! ASHRAE Taub {dimensionless}
  2.181;                                  ! ASHRAE Taud {dimensionless}

OS:ComponentData,
  {69c7e1fb-bc29-4e35-901d-db685fb8690c}, ! Handle
  Component Data 1,                       ! Name
  {88b6a8d6-acf1-4a6b-8231-fab0d486df5c}, ! UUID
  {0053ea06-29a8-4d24-a0eb-fa0dc5c2b16d}, ! Version UUID
  1366308435,                             ! Creation Timestamp
  1366308435,                             ! Version Timestamp
  {006815dc-9f32-4638-963f-6c5a30d92e66}; ! Name of Object 1

