
OS:Version,
  {fbb58823-c351-4556-88a4-c4fc6491e82a}, ! Handle
  0.9.3;                                  ! Version Identifier

OS:SizingPeriod:DesignDay,
  {c96e1683-479e-42ce-8bf3-6738dbb958b2}, ! Handle
  PRESCOTT Ann Htg Wind 99% Condns WS=>MCDB, ! Name
  6.2,                                    ! Maximum Dry-Bulb Temperature {C}
  0,                                      ! Daily Dry-Bulb Temperature Range {deltaC}
  6.2,                                    ! Humidity Indicating Conditions at Maximum Dry-Bulb {BasedOnField A3}
  84235,                                  ! Barometric Pressure {Pa}
  8.9,                                    ! Wind Speed {m/s}
  200,                                    ! Wind Direction {deg}
  0,                                      ! Sky Clearness
  0,                                      ! Rain Indicator
  0,                                      ! Snow Indicator
  21,                                     ! Day of Month
  12,                                     ! Month
  WinterDesignDay,                        ! Day Type
  0,                                      ! Daylight Saving Time Indicator
  Wetbulb,                                ! Humidity Indicating Type
  ,                                       ! Humidity Indicating Day Schedule Name
  DefaultMultipliers,                     ! Dry-Bulb Temperature Range Modifier Type
  ,                                       ! Dry-Bulb Temperature Range Modifier Schedule Name
  ASHRAEClearSky;                         ! Solar Model Indicator

OS:ComponentData,
  {46e5bc03-fcba-4697-8ec8-31bf92102d00}, ! Handle
  Component Data 1,                       ! Name
  {11e4922a-8cd2-4dae-8e59-27a372b5c43c}, ! UUID
  {b899c9aa-9d5b-48d5-a0a1-8781069c4b44}, ! Version UUID
  1366306307,                             ! Creation Timestamp
  1366306307,                             ! Version Timestamp
  {c96e1683-479e-42ce-8bf3-6738dbb958b2}; ! Name of Object 1

