
OS:Version,
  {5a12833f-d022-4f2f-8541-3d49a138d542}, ! Handle
  0.9.3;                                  ! Version Identifier

OS:SizingPeriod:DesignDay,
  {d93f93ca-466e-4aae-9537-aedb4094ad68}, ! Handle
  Winnemucca Municipal Arpt Ann Clg 2% Condns WB=>MDB, ! Name
  31.2,                                   ! Maximum Dry-Bulb Temperature {C}
  21.5,                                   ! Daily Dry-Bulb Temperature Range {deltaC}
  16.4,                                   ! Humidity Indicating Conditions at Maximum Dry-Bulb {BasedOnField A3}
  86546,                                  ! Barometric Pressure {Pa}
  4.4,                                    ! Wind Speed {m/s}
  240,                                    ! Wind Direction {deg}
  0,                                      ! Sky Clearness
  0,                                      ! Rain Indicator
  0,                                      ! Snow Indicator
  21,                                     ! Day of Month
  7,                                      ! Month
  SummerDesignDay,                        ! Day Type
  0,                                      ! Daylight Saving Time Indicator
  Wetbulb,                                ! Humidity Indicating Type
  ,                                       ! Humidity Indicating Day Schedule Name
  DefaultMultipliers,                     ! Dry-Bulb Temperature Range Modifier Type
  ,                                       ! Dry-Bulb Temperature Range Modifier Schedule Name
  ASHRAETau,                              ! Solar Model Indicator
  ,                                       ! Beam Solar Day Schedule Name
  ,                                       ! Diffuse Solar Day Schedule Name
  0.441,                                  ! ASHRAE Taub {dimensionless}
  1.893;                                  ! ASHRAE Taud {dimensionless}

OS:ComponentData,
  {7ded038e-c48a-466f-9bd9-744e403d1286}, ! Handle
  Component Data 1,                       ! Name
  {a9cc0ef2-4ee8-4055-b777-01e5d130defb}, ! UUID
  {a4a96e10-cd70-40d9-8f32-2d954a3a8cc1}, ! Version UUID
  1366309569,                             ! Creation Timestamp
  1366309569,                             ! Version Timestamp
  {d93f93ca-466e-4aae-9537-aedb4094ad68}; ! Name of Object 1

