
OS:Version,
  {7444e905-9b50-4cec-97f5-b7c188fc2658}, ! Handle
  0.9.3;                                  ! Version Identifier

OS:SizingPeriod:DesignDay,
  {f1760aa4-38e1-4bff-b5b3-b81dc8c714b6}, ! Handle
  Williston Sloulin Intl Ap Ann Clg .4% Condns WB=>MDB, ! Name
  30.1,                                   ! Maximum Dry-Bulb Temperature {C}
  14.5,                                   ! Daily Dry-Bulb Temperature Range {deltaC}
  21.9,                                   ! Humidity Indicating Conditions at Maximum Dry-Bulb {BasedOnField A3}
  94549,                                  ! Barometric Pressure {Pa}
  5.5,                                    ! Wind Speed {m/s}
  150,                                    ! Wind Direction {deg}
  0,                                      ! Sky Clearness
  0,                                      ! Rain Indicator
  0,                                      ! Snow Indicator
  21,                                     ! Day of Month
  7,                                      ! Month
  SummerDesignDay,                        ! Day Type
  0,                                      ! Daylight Saving Time Indicator
  Wetbulb,                                ! Humidity Indicating Type
  ,                                       ! Humidity Indicating Day Schedule Name
  DefaultMultipliers,                     ! Dry-Bulb Temperature Range Modifier Type
  ,                                       ! Dry-Bulb Temperature Range Modifier Schedule Name
  ASHRAETau,                              ! Solar Model Indicator
  ,                                       ! Beam Solar Day Schedule Name
  ,                                       ! Diffuse Solar Day Schedule Name
  0.388,                                  ! ASHRAE Taub {dimensionless}
  2.236;                                  ! ASHRAE Taud {dimensionless}

OS:ComponentData,
  {4956fa32-6a1d-47eb-8d2d-a872e000bf34}, ! Handle
  Component Data 1,                       ! Name
  {5bb346f1-db4b-412c-99f3-7b7a52d73c72}, ! UUID
  {6e6eaddf-cdc0-4b2f-8366-295bb9f8aafa}, ! Version UUID
  1366309073,                             ! Creation Timestamp
  1366309073,                             ! Version Timestamp
  {f1760aa4-38e1-4bff-b5b3-b81dc8c714b6}; ! Name of Object 1

