
OS:Version,
  {23ed6f3c-a487-4b58-8332-d201fc632b07}, ! Handle
  0.9.3;                                  ! Version Identifier

OS:SizingPeriod:DesignDay,
  {8b11dfb9-330f-4fe2-8a01-2e368ee30b93}, ! Handle
  MEDFORD Ann Clg 2% Condns WB=>MDB,      ! Name
  31.5,                                   ! Maximum Dry-Bulb Temperature {C}
  17.9,                                   ! Daily Dry-Bulb Temperature Range {deltaC}
  18.9,                                   ! Humidity Indicating Conditions at Maximum Dry-Bulb {BasedOnField A3}
  96657,                                  ! Barometric Pressure {Pa}
  3.9,                                    ! Wind Speed {m/s}
  290,                                    ! Wind Direction {deg}
  0,                                      ! Sky Clearness
  0,                                      ! Rain Indicator
  0,                                      ! Snow Indicator
  21,                                     ! Day of Month
  7,                                      ! Month
  SummerDesignDay,                        ! Day Type
  0,                                      ! Daylight Saving Time Indicator
  Wetbulb,                                ! Humidity Indicating Type
  ,                                       ! Humidity Indicating Day Schedule Name
  DefaultMultipliers,                     ! Dry-Bulb Temperature Range Modifier Type
  ,                                       ! Dry-Bulb Temperature Range Modifier Schedule Name
  ASHRAETau,                              ! Solar Model Indicator
  ,                                       ! Beam Solar Day Schedule Name
  ,                                       ! Diffuse Solar Day Schedule Name
  0.356,                                  ! ASHRAE Taub {dimensionless}
  2.582;                                  ! ASHRAE Taud {dimensionless}

OS:ComponentData,
  {29c3c7e8-4ed6-4a6d-916e-e9b198563d98}, ! Handle
  Component Data 1,                       ! Name
  {5e09eff6-fa1b-47d4-b1b6-578c9616ef44}, ! UUID
  {7496aef8-9cac-4fe6-a1e2-c09b89fbec56}, ! Version UUID
  1366310041,                             ! Creation Timestamp
  1366310041,                             ! Version Timestamp
  {8b11dfb9-330f-4fe2-8a01-2e368ee30b93}; ! Name of Object 1

