
OS:Version,
  {a2ca157a-08b0-4f07-bfe0-d171f721dff1}, ! Handle
  0.9.3;                                  ! Version Identifier

OS:SizingPeriod:DesignDay,
  {597d06c3-69f2-47aa-98e4-6d6ffce8d99c}, ! Handle
  Tucson International Ap Ann Clg .4% Condns WB=>MDB, ! Name
  31.6,                                   ! Maximum Dry-Bulb Temperature {C}
  13.8,                                   ! Daily Dry-Bulb Temperature Range {deltaC}
  22.5,                                   ! Humidity Indicating Conditions at Maximum Dry-Bulb {BasedOnField A3}
  92332,                                  ! Barometric Pressure {Pa}
  5,                                      ! Wind Speed {m/s}
  300,                                    ! Wind Direction {deg}
  0,                                      ! Sky Clearness
  0,                                      ! Rain Indicator
  0,                                      ! Snow Indicator
  21,                                     ! Day of Month
  7,                                      ! Month
  SummerDesignDay,                        ! Day Type
  0,                                      ! Daylight Saving Time Indicator
  Wetbulb,                                ! Humidity Indicating Type
  ,                                       ! Humidity Indicating Day Schedule Name
  DefaultMultipliers,                     ! Dry-Bulb Temperature Range Modifier Type
  ,                                       ! Dry-Bulb Temperature Range Modifier Schedule Name
  ASHRAETau,                              ! Solar Model Indicator
  ,                                       ! Beam Solar Day Schedule Name
  ,                                       ! Diffuse Solar Day Schedule Name
  0.555,                                  ! ASHRAE Taub {dimensionless}
  1.73;                                   ! ASHRAE Taud {dimensionless}

OS:ComponentData,
  {3db5ae6a-f846-42ce-96de-f3769f1ba5fd}, ! Handle
  Component Data 1,                       ! Name
  {034ac162-eeda-4f2a-883e-00672beddf96}, ! UUID
  {fe7447ca-88cb-46d3-9552-fbc4246ad77a}, ! Version UUID
  1366306326,                             ! Creation Timestamp
  1366306326,                             ! Version Timestamp
  {597d06c3-69f2-47aa-98e4-6d6ffce8d99c}; ! Name of Object 1

