
OS:Version,
  {fdf33cf8-0d4e-41e9-804d-07fc2401af92}, ! Handle
  0.9.3;                                  ! Version Identifier

OS:SizingPeriod:DesignDay,
  {a479668a-e26b-42ab-a7e8-7e3e47598510}, ! Handle
  Oklahoma City Wiley Ann Hum_n 99% Condns DP=>MCDB, ! Name
  -5.3,                                   ! Maximum Dry-Bulb Temperature {C}
  0,                                      ! Daily Dry-Bulb Temperature Range {deltaC}
  -14,                                    ! Humidity Indicating Conditions at Maximum Dry-Bulb {BasedOnField A3}
  96657,                                  ! Barometric Pressure {Pa}
  5.1,                                    ! Wind Speed {m/s}
  0,                                      ! Wind Direction {deg}
  0,                                      ! Sky Clearness
  0,                                      ! Rain Indicator
  0,                                      ! Snow Indicator
  21,                                     ! Day of Month
  1,                                      ! Month
  WinterDesignDay,                        ! Day Type
  0,                                      ! Daylight Saving Time Indicator
  Dewpoint,                               ! Humidity Indicating Type
  ,                                       ! Humidity Indicating Day Schedule Name
  DefaultMultipliers,                     ! Dry-Bulb Temperature Range Modifier Type
  ,                                       ! Dry-Bulb Temperature Range Modifier Schedule Name
  ASHRAEClearSky;                         ! Solar Model Indicator

OS:ComponentData,
  {149d7aae-1416-4b3b-9776-acfb58078353}, ! Handle
  Component Data 1,                       ! Name
  {8cb1b5b1-451a-4ea5-b318-2da28e7ecece}, ! UUID
  {a29d6e0d-c7b6-49e3-aa22-829e23fc0c91}, ! Version UUID
  1366309917,                             ! Creation Timestamp
  1366309917,                             ! Version Timestamp
  {a479668a-e26b-42ab-a7e8-7e3e47598510}; ! Name of Object 1

