
OS:Version,
  {a3b5e49a-8207-4ed2-91c8-92cb7100a6e6}, ! Handle
  0.9.3;                                  ! Version Identifier

OS:SizingPeriod:DesignDay,
  {2713ddf7-c1e5-4b7b-9460-39f264feceed}, ! Handle
  Wichita Falls Municipal Arpt Ann Clg .4% Condns DP=>MDB, ! Name
  28.2,                                   ! Maximum Dry-Bulb Temperature {C}
  13,                                     ! Daily Dry-Bulb Temperature Range {deltaC}
  23.3,                                   ! Humidity Indicating Conditions at Maximum Dry-Bulb {BasedOnField A3}
  97609,                                  ! Barometric Pressure {Pa}
  5.5,                                    ! Wind Speed {m/s}
  180,                                    ! Wind Direction {deg}
  0,                                      ! Sky Clearness
  0,                                      ! Rain Indicator
  0,                                      ! Snow Indicator
  21,                                     ! Day of Month
  7,                                      ! Month
  SummerDesignDay,                        ! Day Type
  0,                                      ! Daylight Saving Time Indicator
  Dewpoint,                               ! Humidity Indicating Type
  ,                                       ! Humidity Indicating Day Schedule Name
  DefaultMultipliers,                     ! Dry-Bulb Temperature Range Modifier Type
  ,                                       ! Dry-Bulb Temperature Range Modifier Schedule Name
  ASHRAETau,                              ! Solar Model Indicator
  ,                                       ! Beam Solar Day Schedule Name
  ,                                       ! Diffuse Solar Day Schedule Name
  0.44,                                   ! ASHRAE Taub {dimensionless}
  2.15;                                   ! ASHRAE Taud {dimensionless}

OS:ComponentData,
  {358596f8-e9fb-4ad3-ab39-05afc0b60862}, ! Handle
  Component Data 1,                       ! Name
  {1dfa2e5a-e44c-4d93-be8a-b6da498677f0}, ! UUID
  {d02f494a-3d43-4df9-a014-98e0fa2d8f02}, ! Version UUID
  1366310936,                             ! Creation Timestamp
  1366310936,                             ! Version Timestamp
  {2713ddf7-c1e5-4b7b-9460-39f264feceed}; ! Name of Object 1

