
OS:Version,
  {b0345080-a877-4614-8187-8bb04fcefbab}, ! Handle
  0.9.3;                                  ! Version Identifier

OS:SizingPeriod:DesignDay,
  {015ee18b-dfb1-49bd-a5e3-91771d64a2c1}, ! Handle
  Ottumwa Industrial Ap Ann Htg 99% Condns DB, ! Name
  -17.5,                                  ! Maximum Dry-Bulb Temperature {C}
  0,                                      ! Daily Dry-Bulb Temperature Range {deltaC}
  -17.5,                                  ! Humidity Indicating Conditions at Maximum Dry-Bulb {BasedOnField A3}
  98275,                                  ! Barometric Pressure {Pa}
  5.5,                                    ! Wind Speed {m/s}
  310,                                    ! Wind Direction {deg}
  0,                                      ! Sky Clearness
  0,                                      ! Rain Indicator
  0,                                      ! Snow Indicator
  21,                                     ! Day of Month
  1,                                      ! Month
  WinterDesignDay,                        ! Day Type
  0,                                      ! Daylight Saving Time Indicator
  Wetbulb,                                ! Humidity Indicating Type
  ,                                       ! Humidity Indicating Day Schedule Name
  DefaultMultipliers,                     ! Dry-Bulb Temperature Range Modifier Type
  ,                                       ! Dry-Bulb Temperature Range Modifier Schedule Name
  ASHRAEClearSky;                         ! Solar Model Indicator

OS:ComponentData,
  {ffb1f2cd-4e06-4a17-a097-63db64981da5}, ! Handle
  Component Data 1,                       ! Name
  {55e930a8-b804-420f-b7d5-851be0deaa4b}, ! UUID
  {39b853af-a461-4cce-aca1-23d1219e0c1d}, ! Version UUID
  1366307225,                             ! Creation Timestamp
  1366307225,                             ! Version Timestamp
  {015ee18b-dfb1-49bd-a5e3-91771d64a2c1}; ! Name of Object 1

