
OS:Version,
  {4e8d0a24-b309-49eb-97bf-e4bf3f25a913}, ! Handle
  0.9.3;                                  ! Version Identifier

OS:SizingPeriod:DesignDay,
  {43762f31-2197-4e1b-9f52-097071e8df5e}, ! Handle
  New Orleans Intl Arpt Ann Clg 1% Condns WB=>MDB, ! Name
  31.1,                                   ! Maximum Dry-Bulb Temperature {C}
  8.5,                                    ! Daily Dry-Bulb Temperature Range {deltaC}
  26.7,                                   ! Humidity Indicating Conditions at Maximum Dry-Bulb {BasedOnField A3}
  101313,                                 ! Barometric Pressure {Pa}
  3.4,                                    ! Wind Speed {m/s}
  0,                                      ! Wind Direction {deg}
  0,                                      ! Sky Clearness
  0,                                      ! Rain Indicator
  0,                                      ! Snow Indicator
  21,                                     ! Day of Month
  8,                                      ! Month
  SummerDesignDay,                        ! Day Type
  0,                                      ! Daylight Saving Time Indicator
  Wetbulb,                                ! Humidity Indicating Type
  ,                                       ! Humidity Indicating Day Schedule Name
  DefaultMultipliers,                     ! Dry-Bulb Temperature Range Modifier Type
  ,                                       ! Dry-Bulb Temperature Range Modifier Schedule Name
  ASHRAETau,                              ! Solar Model Indicator
  ,                                       ! Beam Solar Day Schedule Name
  ,                                       ! Diffuse Solar Day Schedule Name
  0.553,                                  ! ASHRAE Taub {dimensionless}
  1.821;                                  ! ASHRAE Taud {dimensionless}

OS:ComponentData,
  {b11863c3-2ff3-4805-9baa-43543a54347e}, ! Handle
  Component Data 1,                       ! Name
  {3e44d1bf-b6a2-45ff-82b8-d3a90f06a303}, ! UUID
  {bdb8c860-9221-4051-b035-f339a646143e}, ! Version UUID
  1366307755,                             ! Creation Timestamp
  1366307755,                             ! Version Timestamp
  {43762f31-2197-4e1b-9f52-097071e8df5e}; ! Name of Object 1

