
OS:Version,
  {004dc5d5-d1ea-489c-90a0-c994bbfb255c}, ! Handle
  0.9.3;                                  ! Version Identifier

OS:SizingPeriod:DesignDay,
  {ffce75ca-bcfe-4183-9eaa-139d3038b9f3}, ! Handle
  Milwaukee Mitchell Intl Ap Ann Clg .4% Condns DB=>MWB, ! Name
  32.4,                                   ! Maximum Dry-Bulb Temperature {C}
  8.7,                                    ! Daily Dry-Bulb Temperature Range {deltaC}
  23.7,                                   ! Humidity Indicating Conditions at Maximum Dry-Bulb {BasedOnField A3}
  98886,                                  ! Barometric Pressure {Pa}
  6.4,                                    ! Wind Speed {m/s}
  240,                                    ! Wind Direction {deg}
  0,                                      ! Sky Clearness
  0,                                      ! Rain Indicator
  0,                                      ! Snow Indicator
  21,                                     ! Day of Month
  7,                                      ! Month
  SummerDesignDay,                        ! Day Type
  0,                                      ! Daylight Saving Time Indicator
  Wetbulb,                                ! Humidity Indicating Type
  ,                                       ! Humidity Indicating Day Schedule Name
  DefaultMultipliers,                     ! Dry-Bulb Temperature Range Modifier Type
  ,                                       ! Dry-Bulb Temperature Range Modifier Schedule Name
  ASHRAETau,                              ! Solar Model Indicator
  ,                                       ! Beam Solar Day Schedule Name
  ,                                       ! Diffuse Solar Day Schedule Name
  0.452,                                  ! ASHRAE Taub {dimensionless}
  2.061;                                  ! ASHRAE Taud {dimensionless}

OS:ComponentData,
  {ce192b83-df31-4097-ba48-5f68f4ad8d11}, ! Handle
  Component Data 1,                       ! Name
  {3ea862ec-1ae5-4258-a9e9-e406997b1d6a}, ! UUID
  {bdb402fa-6c5e-4d75-a14e-b30687afd702}, ! Version UUID
  1366311557,                             ! Creation Timestamp
  1366311557,                             ! Version Timestamp
  {ffce75ca-bcfe-4183-9eaa-139d3038b9f3}; ! Name of Object 1

