
OS:Version,
  {2fc4f80d-8396-4492-b591-d03899daa957}, ! Handle
  0.9.3;                                  ! Version Identifier

OS:SizingPeriod:DesignDay,
  {54989a51-9973-4a48-b22f-7de930025826}, ! Handle
  Wilkes-Barre/Scranton Ann Clg 2% Condns Enth=>MDB, ! Name
  26.3,                                   ! Maximum Dry-Bulb Temperature {C}
  10.8,                                   ! Daily Dry-Bulb Temperature Range {deltaC}
  66300,                                  ! Humidity Indicating Conditions at Maximum Dry-Bulb {BasedOnField A3}
  97901,                                  ! Barometric Pressure {Pa}
  4.5,                                    ! Wind Speed {m/s}
  240,                                    ! Wind Direction {deg}
  0,                                      ! Sky Clearness
  0,                                      ! Rain Indicator
  0,                                      ! Snow Indicator
  21,                                     ! Day of Month
  7,                                      ! Month
  SummerDesignDay,                        ! Day Type
  0,                                      ! Daylight Saving Time Indicator
  Enthalpy,                               ! Humidity Indicating Type
  ,                                       ! Humidity Indicating Day Schedule Name
  DefaultMultipliers,                     ! Dry-Bulb Temperature Range Modifier Type
  ,                                       ! Dry-Bulb Temperature Range Modifier Schedule Name
  ASHRAETau,                              ! Solar Model Indicator
  ,                                       ! Beam Solar Day Schedule Name
  ,                                       ! Diffuse Solar Day Schedule Name
  0.477,                                  ! ASHRAE Taub {dimensionless}
  1.945;                                  ! ASHRAE Taud {dimensionless}

OS:ComponentData,
  {67dfaaff-94d0-4bc2-beec-1fd922afc9a3}, ! Handle
  Component Data 1,                       ! Name
  {0ecddc02-f606-4f67-b6dd-0d68c9ccc636}, ! UUID
  {f282b077-38cc-4c1d-930e-ac78ff73996b}, ! Version UUID
  1366310263,                             ! Creation Timestamp
  1366310263,                             ! Version Timestamp
  {54989a51-9973-4a48-b22f-7de930025826}; ! Name of Object 1

