
OS:Version,
  {ab51e31e-970a-41f9-bafa-724d94008948}, ! Handle
  0.9.3;                                  ! Version Identifier

OS:SizingPeriod:DesignDay,
  {59ed5159-ce39-4c41-a333-a3d916592619}, ! Handle
  TRAVERSE_CITY Ann Htg 99.6% Condns DB,  ! Name
  -18,                                    ! Maximum Dry-Bulb Temperature {C}
  0,                                      ! Daily Dry-Bulb Temperature Range {deltaC}
  -18,                                    ! Humidity Indicating Conditions at Maximum Dry-Bulb {BasedOnField A3}
  99040,                                  ! Barometric Pressure {Pa}
  2.5,                                    ! Wind Speed {m/s}
  190,                                    ! Wind Direction {deg}
  0,                                      ! Sky Clearness
  0,                                      ! Rain Indicator
  0,                                      ! Snow Indicator
  21,                                     ! Day of Month
  1,                                      ! Month
  WinterDesignDay,                        ! Day Type
  0,                                      ! Daylight Saving Time Indicator
  Wetbulb,                                ! Humidity Indicating Type
  ,                                       ! Humidity Indicating Day Schedule Name
  DefaultMultipliers,                     ! Dry-Bulb Temperature Range Modifier Type
  ,                                       ! Dry-Bulb Temperature Range Modifier Schedule Name
  ASHRAEClearSky;                         ! Solar Model Indicator

OS:ComponentData,
  {2765d009-319d-4eb8-bde4-8c99d064d500}, ! Handle
  Component Data 1,                       ! Name
  {ec8799e5-3fee-4a16-bf64-3b9ed0085e13}, ! UUID
  {be4adccf-3356-4264-b94d-091dddd42075}, ! Version UUID
  1366308128,                             ! Creation Timestamp
  1366308128,                             ! Version Timestamp
  {59ed5159-ce39-4c41-a333-a3d916592619}; ! Name of Object 1

