
OS:Version,
  {5412fe65-048f-4c17-a5c5-9d7a288a8025}, ! Handle
  0.9.3;                                  ! Version Identifier

OS:SizingPeriod:DesignDay,
  {76dbe4c2-472e-46b9-8128-84b94fa05e25}, ! Handle
  South St Paul Muni Ann Htg Wind 99% Condns WS=>MCDB, ! Name
  -6.4,                                   ! Maximum Dry-Bulb Temperature {C}
  0,                                      ! Daily Dry-Bulb Temperature Range {deltaC}
  -6.4,                                   ! Humidity Indicating Conditions at Maximum Dry-Bulb {BasedOnField A3}
  98358,                                  ! Barometric Pressure {Pa}
  7.9,                                    ! Wind Speed {m/s}
  280,                                    ! Wind Direction {deg}
  0,                                      ! Sky Clearness
  0,                                      ! Rain Indicator
  0,                                      ! Snow Indicator
  21,                                     ! Day of Month
  1,                                      ! Month
  WinterDesignDay,                        ! Day Type
  0,                                      ! Daylight Saving Time Indicator
  Wetbulb,                                ! Humidity Indicating Type
  ,                                       ! Humidity Indicating Day Schedule Name
  DefaultMultipliers,                     ! Dry-Bulb Temperature Range Modifier Type
  ,                                       ! Dry-Bulb Temperature Range Modifier Schedule Name
  ASHRAEClearSky;                         ! Solar Model Indicator

OS:ComponentData,
  {9ea9b3ef-e8d1-45e7-99bf-699c06ff10dd}, ! Handle
  Component Data 1,                       ! Name
  {435451a0-21cd-4d2c-bf48-3db63332cbcd}, ! UUID
  {62f8b067-c7c2-4822-8b95-20e163fb11f6}, ! Version UUID
  1366308421,                             ! Creation Timestamp
  1366308421,                             ! Version Timestamp
  {76dbe4c2-472e-46b9-8128-84b94fa05e25}; ! Name of Object 1

