
OS:Version,
  {5c12d8b0-0743-425a-9d0e-754dc881dbbb}, ! Handle
  0.9.3;                                  ! Version Identifier

OS:SizingPeriod:DesignDay,
  {ef7c0890-65fb-424a-8ca8-23cc989add84}, ! Handle
  Nenana Municipal Ap Ann Clg 2% Condns WB=>MDB, ! Name
  21.4,                                   ! Maximum Dry-Bulb Temperature {C}
  11.3,                                   ! Daily Dry-Bulb Temperature Range {deltaC}
  15.2,                                   ! Humidity Indicating Conditions at Maximum Dry-Bulb {BasedOnField A3}
  100022,                                 ! Barometric Pressure {Pa}
  2.6,                                    ! Wind Speed {m/s}
  60,                                     ! Wind Direction {deg}
  0,                                      ! Sky Clearness
  0,                                      ! Rain Indicator
  0,                                      ! Snow Indicator
  21,                                     ! Day of Month
  7,                                      ! Month
  SummerDesignDay,                        ! Day Type
  0,                                      ! Daylight Saving Time Indicator
  Wetbulb,                                ! Humidity Indicating Type
  ,                                       ! Humidity Indicating Day Schedule Name
  DefaultMultipliers,                     ! Dry-Bulb Temperature Range Modifier Type
  ,                                       ! Dry-Bulb Temperature Range Modifier Schedule Name
  ASHRAETau,                              ! Solar Model Indicator
  ,                                       ! Beam Solar Day Schedule Name
  ,                                       ! Diffuse Solar Day Schedule Name
  0.38,                                   ! ASHRAE Taub {dimensionless}
  2.23;                                   ! ASHRAE Taud {dimensionless}

OS:ComponentData,
  {64d5ea08-22f2-4ecb-aa3b-32238020d13d}, ! Handle
  Component Data 1,                       ! Name
  {9b120d5d-eb62-4dec-a884-25c143148444}, ! UUID
  {900d4f7c-4722-4c0f-91d9-2ef0b62fe5aa}, ! Version UUID
  1366305441,                             ! Creation Timestamp
  1366305441,                             ! Version Timestamp
  {ef7c0890-65fb-424a-8ca8-23cc989add84}; ! Name of Object 1

