
OS:Version,
  {112b79ef-9330-4471-9433-97d3c7d888db}, ! Handle
  0.9.3;                                  ! Version Identifier

OS:SizingPeriod:DesignDay,
  {a7fc977c-4b7f-4718-9f8d-d32c23d8679c}, ! Handle
  WILMINGTON Ann Hum_n 99% Condns DP=>MCDB, ! Name
  -7.2,                                   ! Maximum Dry-Bulb Temperature {C}
  0,                                      ! Daily Dry-Bulb Temperature Range {deltaC}
  -17.3,                                  ! Humidity Indicating Conditions at Maximum Dry-Bulb {BasedOnField A3}
  101037,                                 ! Barometric Pressure {Pa}
  4.6,                                    ! Wind Speed {m/s}
  310,                                    ! Wind Direction {deg}
  0,                                      ! Sky Clearness
  0,                                      ! Rain Indicator
  0,                                      ! Snow Indicator
  21,                                     ! Day of Month
  1,                                      ! Month
  WinterDesignDay,                        ! Day Type
  0,                                      ! Daylight Saving Time Indicator
  Dewpoint,                               ! Humidity Indicating Type
  ,                                       ! Humidity Indicating Day Schedule Name
  DefaultMultipliers,                     ! Dry-Bulb Temperature Range Modifier Type
  ,                                       ! Dry-Bulb Temperature Range Modifier Schedule Name
  ASHRAEClearSky;                         ! Solar Model Indicator

OS:ComponentData,
  {4e9d5897-f1e9-42c1-9331-d6eaf79c954d}, ! Handle
  Component Data 1,                       ! Name
  {7716d3fc-2af9-466d-9c42-1458de0fa31d}, ! UUID
  {cc4e359f-1082-44e2-b6ac-95e7acb4ff2f}, ! Version UUID
  1366306778,                             ! Creation Timestamp
  1366306778,                             ! Version Timestamp
  {a7fc977c-4b7f-4718-9f8d-d32c23d8679c}; ! Name of Object 1

