
OS:Version,
  {10ba2c91-4419-4b13-b3af-bfe0ad55c2ec}, ! Handle
  0.9.3;                                  ! Version Identifier

OS:SizingPeriod:DesignDay,
  {f4637d1d-9461-4393-8f50-a92bc46e942f}, ! Handle
  SPRINGFIELD Ann Htg Wind 99.6% Condns WS=>MCDB, ! Name
  4.9,                                    ! Maximum Dry-Bulb Temperature {C}
  0,                                      ! Daily Dry-Bulb Temperature Range {deltaC}
  4.9,                                    ! Humidity Indicating Conditions at Maximum Dry-Bulb {BasedOnField A3}
  96761,                                  ! Barometric Pressure {Pa}
  11.6,                                   ! Wind Speed {m/s}
  350,                                    ! Wind Direction {deg}
  0,                                      ! Sky Clearness
  0,                                      ! Rain Indicator
  0,                                      ! Snow Indicator
  21,                                     ! Day of Month
  1,                                      ! Month
  WinterDesignDay,                        ! Day Type
  0,                                      ! Daylight Saving Time Indicator
  Wetbulb,                                ! Humidity Indicating Type
  ,                                       ! Humidity Indicating Day Schedule Name
  DefaultMultipliers,                     ! Dry-Bulb Temperature Range Modifier Type
  ,                                       ! Dry-Bulb Temperature Range Modifier Schedule Name
  ASHRAEClearSky;                         ! Solar Model Indicator

OS:ComponentData,
  {a7e89a8b-8ce8-4ef0-b268-366c947d7435}, ! Handle
  Component Data 1,                       ! Name
  {c6cd7896-b925-4865-bc89-e137b4fb981d}, ! UUID
  {b7df0ea3-b045-4dba-81f5-79d5114b053a}, ! Version UUID
  1366308559,                             ! Creation Timestamp
  1366308559,                             ! Version Timestamp
  {f4637d1d-9461-4393-8f50-a92bc46e942f}; ! Name of Object 1

