
OS:Version,
  {f2b092d2-be7b-4d62-be1c-15cf921d273e}, ! Handle
  0.9.3;                                  ! Version Identifier

OS:SizingPeriod:DesignDay,
  {5b69ba7f-d46d-45c0-a7b9-cdbca0fea2df}, ! Handle
  Yuma Mcas Ann Clg 2% Condns DB=>MWB,    ! Name
  41.6,                                   ! Maximum Dry-Bulb Temperature {C}
  13.1,                                   ! Daily Dry-Bulb Temperature Range {deltaC}
  22.6,                                   ! Humidity Indicating Conditions at Maximum Dry-Bulb {BasedOnField A3}
  100547,                                 ! Barometric Pressure {Pa}
  3.4,                                    ! Wind Speed {m/s}
  180,                                    ! Wind Direction {deg}
  0,                                      ! Sky Clearness
  0,                                      ! Rain Indicator
  0,                                      ! Snow Indicator
  21,                                     ! Day of Month
  7,                                      ! Month
  SummerDesignDay,                        ! Day Type
  0,                                      ! Daylight Saving Time Indicator
  Wetbulb,                                ! Humidity Indicating Type
  ,                                       ! Humidity Indicating Day Schedule Name
  DefaultMultipliers,                     ! Dry-Bulb Temperature Range Modifier Type
  ,                                       ! Dry-Bulb Temperature Range Modifier Schedule Name
  ASHRAETau,                              ! Solar Model Indicator
  ,                                       ! Beam Solar Day Schedule Name
  ,                                       ! Diffuse Solar Day Schedule Name
  0.533,                                  ! ASHRAE Taub {dimensionless}
  1.765;                                  ! ASHRAE Taud {dimensionless}

OS:ComponentData,
  {2c808dc7-e1ec-428f-9aa5-c8dc60299219}, ! Handle
  Component Data 1,                       ! Name
  {c1d9a970-7244-4e6f-83fb-2f670958ffa7}, ! UUID
  {12916927-88b6-47c9-a1be-aa497989ef74}, ! Version UUID
  1366306341,                             ! Creation Timestamp
  1366306341,                             ! Version Timestamp
  {5b69ba7f-d46d-45c0-a7b9-cdbca0fea2df}; ! Name of Object 1

