
OS:Version,
  {1e80d543-a73a-40b4-ae64-db7d99690a8a}, ! Handle
  0.9.3;                                  ! Version Identifier

OS:SizingPeriod:DesignDay,
  {139c4138-4146-4063-a6af-08a4cf5a52c0}, ! Handle
  Ottumwa Industrial Ap Ann Clg 1% Condns DB=>MWB, ! Name
  32.4,                                   ! Maximum Dry-Bulb Temperature {C}
  10.4,                                   ! Daily Dry-Bulb Temperature Range {deltaC}
  24,                                     ! Humidity Indicating Conditions at Maximum Dry-Bulb {BasedOnField A3}
  98275,                                  ! Barometric Pressure {Pa}
  6.2,                                    ! Wind Speed {m/s}
  190,                                    ! Wind Direction {deg}
  0,                                      ! Sky Clearness
  0,                                      ! Rain Indicator
  0,                                      ! Snow Indicator
  21,                                     ! Day of Month
  7,                                      ! Month
  SummerDesignDay,                        ! Day Type
  0,                                      ! Daylight Saving Time Indicator
  Wetbulb,                                ! Humidity Indicating Type
  ,                                       ! Humidity Indicating Day Schedule Name
  DefaultMultipliers,                     ! Dry-Bulb Temperature Range Modifier Type
  ,                                       ! Dry-Bulb Temperature Range Modifier Schedule Name
  ASHRAETau,                              ! Solar Model Indicator
  ,                                       ! Beam Solar Day Schedule Name
  ,                                       ! Diffuse Solar Day Schedule Name
  0.44,                                   ! ASHRAE Taub {dimensionless}
  2.113;                                  ! ASHRAE Taud {dimensionless}

OS:ComponentData,
  {7a9cd648-9369-448c-b773-dc4091e45b9d}, ! Handle
  Component Data 1,                       ! Name
  {bd85666d-376e-4f58-aa00-bb2ac5320c24}, ! UUID
  {e23a8277-e229-4306-8636-4cdf275bf908}, ! Version UUID
  1366307226,                             ! Creation Timestamp
  1366307226,                             ! Version Timestamp
  {139c4138-4146-4063-a6af-08a4cf5a52c0}; ! Name of Object 1

