
OS:Version,
  {31720a4e-c172-4cd9-9401-758af5ee45ca}, ! Handle
  0.9.3;                                  ! Version Identifier

OS:SizingPeriod:DesignDay,
  {a67e7a58-57cc-4e82-b017-c4985bc48e9a}, ! Handle
  Minchumina Ann Clg 2% Condns DP=>MDB,   ! Name
  16.5,                                   ! Maximum Dry-Bulb Temperature {C}
  8.5,                                    ! Daily Dry-Bulb Temperature Range {deltaC}
  12,                                     ! Humidity Indicating Conditions at Maximum Dry-Bulb {BasedOnField A3}
  98792,                                  ! Barometric Pressure {Pa}
  1.7,                                    ! Wind Speed {m/s}
  70,                                     ! Wind Direction {deg}
  0,                                      ! Sky Clearness
  0,                                      ! Rain Indicator
  0,                                      ! Snow Indicator
  21,                                     ! Day of Month
  7,                                      ! Month
  SummerDesignDay,                        ! Day Type
  0,                                      ! Daylight Saving Time Indicator
  Dewpoint,                               ! Humidity Indicating Type
  ,                                       ! Humidity Indicating Day Schedule Name
  DefaultMultipliers,                     ! Dry-Bulb Temperature Range Modifier Type
  ,                                       ! Dry-Bulb Temperature Range Modifier Schedule Name
  ASHRAETau,                              ! Solar Model Indicator
  ,                                       ! Beam Solar Day Schedule Name
  ,                                       ! Diffuse Solar Day Schedule Name
  0.376,                                  ! ASHRAE Taub {dimensionless}
  2.222;                                  ! ASHRAE Taud {dimensionless}

OS:ComponentData,
  {89c4b3bc-173b-47d4-acf6-03f70c2d54ef}, ! Handle
  Component Data 1,                       ! Name
  {5a7c23aa-5616-4828-94a1-c320318f238c}, ! UUID
  {3258938e-436e-41cd-ac51-e4eecd27afe9}, ! Version UUID
  1366305437,                             ! Creation Timestamp
  1366305437,                             ! Version Timestamp
  {a67e7a58-57cc-4e82-b017-c4985bc48e9a}; ! Name of Object 1

