
OS:Version,
  {3075fd29-42f9-4767-8c77-7682703df9d8}, ! Handle
  0.9.3;                                  ! Version Identifier

OS:SizingPeriod:DesignDay,
  {14cabc05-7887-412f-8abd-3f796ddf10b5}, ! Handle
  Prescott Love Field Ann Clg 1% Condns DB=>MWB, ! Name
  33,                                     ! Maximum Dry-Bulb Temperature {C}
  14.5,                                   ! Daily Dry-Bulb Temperature Range {deltaC}
  15.9,                                   ! Humidity Indicating Conditions at Maximum Dry-Bulb {BasedOnField A3}
  84173,                                  ! Barometric Pressure {Pa}
  4.8,                                    ! Wind Speed {m/s}
  240,                                    ! Wind Direction {deg}
  0,                                      ! Sky Clearness
  0,                                      ! Rain Indicator
  0,                                      ! Snow Indicator
  21,                                     ! Day of Month
  7,                                      ! Month
  SummerDesignDay,                        ! Day Type
  0,                                      ! Daylight Saving Time Indicator
  Wetbulb,                                ! Humidity Indicating Type
  ,                                       ! Humidity Indicating Day Schedule Name
  DefaultMultipliers,                     ! Dry-Bulb Temperature Range Modifier Type
  ,                                       ! Dry-Bulb Temperature Range Modifier Schedule Name
  ASHRAETau,                              ! Solar Model Indicator
  ,                                       ! Beam Solar Day Schedule Name
  ,                                       ! Diffuse Solar Day Schedule Name
  0.445,                                  ! ASHRAE Taub {dimensionless}
  1.967;                                  ! ASHRAE Taud {dimensionless}

OS:ComponentData,
  {4147390b-4863-4f25-b361-11b107651f43}, ! Handle
  Component Data 1,                       ! Name
  {51c4dd4d-06b5-4245-8f4f-2f3f50c1de7c}, ! UUID
  {9b074d8d-adc4-423b-8e55-26e542ad6630}, ! Version UUID
  1366306304,                             ! Creation Timestamp
  1366306304,                             ! Version Timestamp
  {14cabc05-7887-412f-8abd-3f796ddf10b5}; ! Name of Object 1

