
OS:Version,
  {e036d266-c85a-4f88-bf59-433e64aae8fc}, ! Handle
  0.9.3;                                  ! Version Identifier

OS:SizingPeriod:DesignDay,
  {fe59c87f-44d3-42f3-8bcb-52d702685632}, ! Handle
  Roseau Muni  Awos Ann Clg .4% Condns DP=>MDB, ! Name
  26.7,                                   ! Maximum Dry-Bulb Temperature {C}
  11.5,                                   ! Daily Dry-Bulb Temperature Range {deltaC}
  23,                                     ! Humidity Indicating Conditions at Maximum Dry-Bulb {BasedOnField A3}
  97504,                                  ! Barometric Pressure {Pa}
  5.1,                                    ! Wind Speed {m/s}
  200,                                    ! Wind Direction {deg}
  0,                                      ! Sky Clearness
  0,                                      ! Rain Indicator
  0,                                      ! Snow Indicator
  21,                                     ! Day of Month
  7,                                      ! Month
  SummerDesignDay,                        ! Day Type
  0,                                      ! Daylight Saving Time Indicator
  Dewpoint,                               ! Humidity Indicating Type
  ,                                       ! Humidity Indicating Day Schedule Name
  DefaultMultipliers,                     ! Dry-Bulb Temperature Range Modifier Type
  ,                                       ! Dry-Bulb Temperature Range Modifier Schedule Name
  ASHRAETau,                              ! Solar Model Indicator
  ,                                       ! Beam Solar Day Schedule Name
  ,                                       ! Diffuse Solar Day Schedule Name
  0.397,                                  ! ASHRAE Taub {dimensionless}
  2.252;                                  ! ASHRAE Taud {dimensionless}

OS:ComponentData,
  {d8ca11d7-4c9a-41c6-b8f0-399573099954}, ! Handle
  Component Data 1,                       ! Name
  {eaee23e4-f11f-4cbe-ad7d-a9283a592d37}, ! UUID
  {c11c0d42-743a-4ac4-a8b9-3e82b4b3b716}, ! Version UUID
  1366308405,                             ! Creation Timestamp
  1366308405,                             ! Version Timestamp
  {fe59c87f-44d3-42f3-8bcb-52d702685632}; ! Name of Object 1

