
OS:Version,
  {208eff6a-d6a0-4da6-aa43-263869e44274}, ! Handle
  0.9.3;                                  ! Version Identifier

OS:SizingPeriod:DesignDay,
  {fb8b48e3-1d4c-4f4e-b9f4-e3ff3f4fbafc}, ! Handle
  Prescott Love Field Ann Htg Wind 99% Condns WS=>MCDB, ! Name
  6.2,                                    ! Maximum Dry-Bulb Temperature {C}
  0,                                      ! Daily Dry-Bulb Temperature Range {deltaC}
  6.2,                                    ! Humidity Indicating Conditions at Maximum Dry-Bulb {BasedOnField A3}
  84173,                                  ! Barometric Pressure {Pa}
  8.9,                                    ! Wind Speed {m/s}
  200,                                    ! Wind Direction {deg}
  0,                                      ! Sky Clearness
  0,                                      ! Rain Indicator
  0,                                      ! Snow Indicator
  21,                                     ! Day of Month
  12,                                     ! Month
  WinterDesignDay,                        ! Day Type
  0,                                      ! Daylight Saving Time Indicator
  Wetbulb,                                ! Humidity Indicating Type
  ,                                       ! Humidity Indicating Day Schedule Name
  DefaultMultipliers,                     ! Dry-Bulb Temperature Range Modifier Type
  ,                                       ! Dry-Bulb Temperature Range Modifier Schedule Name
  ASHRAEClearSky;                         ! Solar Model Indicator

OS:ComponentData,
  {69bcdc52-f4c1-4f07-88fd-e60612e18adf}, ! Handle
  Component Data 1,                       ! Name
  {26c50ad4-9786-4d91-92ac-f121290467d0}, ! UUID
  {41162a12-ba08-40e4-b05a-5817bf9203a7}, ! Version UUID
  1366306304,                             ! Creation Timestamp
  1366306304,                             ! Version Timestamp
  {fb8b48e3-1d4c-4f4e-b9f4-e3ff3f4fbafc}; ! Name of Object 1

