
OS:Version,
  {da3cfd3b-e2ae-4cbf-a464-9c1eb8deda12}, ! Handle
  0.9.3;                                  ! Version Identifier

OS:SizingPeriod:DesignDay,
  {67036101-13e2-46bb-8e0a-c60c7533816f}, ! Handle
  Richmond Ann Clg 2% Condns Enth=>MDB,   ! Name
  30.1,                                   ! Maximum Dry-Bulb Temperature {C}
  10.4,                                   ! Daily Dry-Bulb Temperature Range {deltaC}
  75000,                                  ! Humidity Indicating Conditions at Maximum Dry-Bulb {BasedOnField A3}
  100678,                                 ! Barometric Pressure {Pa}
  4.5,                                    ! Wind Speed {m/s}
  230,                                    ! Wind Direction {deg}
  0,                                      ! Sky Clearness
  0,                                      ! Rain Indicator
  0,                                      ! Snow Indicator
  21,                                     ! Day of Month
  7,                                      ! Month
  SummerDesignDay,                        ! Day Type
  0,                                      ! Daylight Saving Time Indicator
  Enthalpy,                               ! Humidity Indicating Type
  ,                                       ! Humidity Indicating Day Schedule Name
  DefaultMultipliers,                     ! Dry-Bulb Temperature Range Modifier Type
  ,                                       ! Dry-Bulb Temperature Range Modifier Schedule Name
  ASHRAETau,                              ! Solar Model Indicator
  ,                                       ! Beam Solar Day Schedule Name
  ,                                       ! Diffuse Solar Day Schedule Name
  0.567,                                  ! ASHRAE Taub {dimensionless}
  1.742;                                  ! ASHRAE Taud {dimensionless}

