
OS:Version,
  {53ae9858-8195-4be9-b2f5-ef17763b309c}, ! Handle
  0.9.3;                                  ! Version Identifier

OS:SizingPeriod:DesignDay,
  {1468609a-e99b-49c0-b3c1-05dde8457593}, ! Handle
  Republic Ann Clg .4% Condns WB=>MDB,    ! Name
  29.5,                                   ! Maximum Dry-Bulb Temperature {C}
  8,                                      ! Daily Dry-Bulb Temperature Range {deltaC}
  25,                                     ! Humidity Indicating Conditions at Maximum Dry-Bulb {BasedOnField A3}
  101013,                                 ! Barometric Pressure {Pa}
  5.5,                                    ! Wind Speed {m/s}
  210,                                    ! Wind Direction {deg}
  0,                                      ! Sky Clearness
  0,                                      ! Rain Indicator
  0,                                      ! Snow Indicator
  21,                                     ! Day of Month
  7,                                      ! Month
  SummerDesignDay,                        ! Day Type
  0,                                      ! Daylight Saving Time Indicator
  Wetbulb,                                ! Humidity Indicating Type
  ,                                       ! Humidity Indicating Day Schedule Name
  DefaultMultipliers,                     ! Dry-Bulb Temperature Range Modifier Type
  ,                                       ! Dry-Bulb Temperature Range Modifier Schedule Name
  ASHRAETau,                              ! Solar Model Indicator
  ,                                       ! Beam Solar Day Schedule Name
  ,                                       ! Diffuse Solar Day Schedule Name
  0.541,                                  ! ASHRAE Taub {dimensionless}
  1.799;                                  ! ASHRAE Taud {dimensionless}

OS:ComponentData,
  {be57a9d9-54b5-47ce-a0ab-79f3bcc1c856}, ! Handle
  Component Data 1,                       ! Name
  {94b35181-f7f2-4453-af19-c37596b7aea3}, ! UUID
  {a5db9e83-ca8d-4c14-9a23-88fcea0fc86c}, ! Version UUID
  1366309709,                             ! Creation Timestamp
  1366309709,                             ! Version Timestamp
  {1468609a-e99b-49c0-b3c1-05dde8457593}; ! Name of Object 1

