
OS:Version,
  {b92d03a1-36c6-454b-969c-f955074c5975}, ! Handle
  0.9.3;                                  ! Version Identifier

OS:SizingPeriod:DesignDay,
  {eaceff10-a2e8-4b9d-8dab-8a6717a9f3ea}, ! Handle
  Oakland Co Intl Ann Clg 2% Condns WB=>MDB, ! Name
  26.9,                                   ! Maximum Dry-Bulb Temperature {C}
  10.1,                                   ! Daily Dry-Bulb Temperature Range {deltaC}
  22.3,                                   ! Humidity Indicating Conditions at Maximum Dry-Bulb {BasedOnField A3}
  97703,                                  ! Barometric Pressure {Pa}
  5.2,                                    ! Wind Speed {m/s}
  240,                                    ! Wind Direction {deg}
  0,                                      ! Sky Clearness
  0,                                      ! Rain Indicator
  0,                                      ! Snow Indicator
  21,                                     ! Day of Month
  7,                                      ! Month
  SummerDesignDay,                        ! Day Type
  0,                                      ! Daylight Saving Time Indicator
  Wetbulb,                                ! Humidity Indicating Type
  ,                                       ! Humidity Indicating Day Schedule Name
  DefaultMultipliers,                     ! Dry-Bulb Temperature Range Modifier Type
  ,                                       ! Dry-Bulb Temperature Range Modifier Schedule Name
  ASHRAETau,                              ! Solar Model Indicator
  ,                                       ! Beam Solar Day Schedule Name
  ,                                       ! Diffuse Solar Day Schedule Name
  0.46,                                   ! ASHRAE Taub {dimensionless}
  1.996;                                  ! ASHRAE Taud {dimensionless}

OS:ComponentData,
  {1802f610-7601-43fd-b4ab-f8d68119b5de}, ! Handle
  Component Data 1,                       ! Name
  {108179f1-011b-4e83-899a-a7902ff5fe27}, ! UUID
  {2438ab92-da7f-4b2c-a6e5-14aeae318a57}, ! Version UUID
  1366308080,                             ! Creation Timestamp
  1366308080,                             ! Version Timestamp
  {eaceff10-a2e8-4b9d-8dab-8a6717a9f3ea}; ! Name of Object 1

