
OS:Version,
  {af081c0d-1351-4bcc-9026-f85ee11c5698}, ! Handle
  0.9.3;                                  ! Version Identifier

OS:SizingPeriod:DesignDay,
  {ab6fcb02-2b1d-4d2d-8ee7-0641155b4eed}, ! Handle
  Rochester International Arpt Ann Clg .4% Condns Enth=>MDB, ! Name
  29.4,                                   ! Maximum Dry-Bulb Temperature {C}
  10.6,                                   ! Daily Dry-Bulb Temperature Range {deltaC}
  77700,                                  ! Humidity Indicating Conditions at Maximum Dry-Bulb {BasedOnField A3}
  96634,                                  ! Barometric Pressure {Pa}
  6.7,                                    ! Wind Speed {m/s}
  200,                                    ! Wind Direction {deg}
  0,                                      ! Sky Clearness
  0,                                      ! Rain Indicator
  0,                                      ! Snow Indicator
  21,                                     ! Day of Month
  7,                                      ! Month
  SummerDesignDay,                        ! Day Type
  0,                                      ! Daylight Saving Time Indicator
  Enthalpy,                               ! Humidity Indicating Type
  ,                                       ! Humidity Indicating Day Schedule Name
  DefaultMultipliers,                     ! Dry-Bulb Temperature Range Modifier Type
  ,                                       ! Dry-Bulb Temperature Range Modifier Schedule Name
  ASHRAETau,                              ! Solar Model Indicator
  ,                                       ! Beam Solar Day Schedule Name
  ,                                       ! Diffuse Solar Day Schedule Name
  0.404,                                  ! ASHRAE Taub {dimensionless}
  2.226;                                  ! ASHRAE Taud {dimensionless}

OS:ComponentData,
  {6f2a7a50-2226-450d-afdd-7c7eccf0d605}, ! Handle
  Component Data 1,                       ! Name
  {4ec24487-a2c6-4d7f-a7d3-8b80eb30bca7}, ! UUID
  {f9bf1870-5520-4ee7-8edd-0fa2920574dd}, ! Version UUID
  1366308400,                             ! Creation Timestamp
  1366308400,                             ! Version Timestamp
  {ab6fcb02-2b1d-4d2d-8ee7-0641155b4eed}; ! Name of Object 1

