
OS:Version,
  {fdf5ff93-66e4-4d75-9dff-9add7f3e7122}, ! Handle
  0.9.3;                                  ! Version Identifier

OS:SizingPeriod:DesignDay,
  {b115d75a-6dc3-4573-ba35-d993e8473d3e}, ! Handle
  Mosinee Central Wi Ann Hum_n 99% Condns DP=>MCDB, ! Name
  -20.9,                                  ! Maximum Dry-Bulb Temperature {C}
  0,                                      ! Daily Dry-Bulb Temperature Range {deltaC}
  -26.1,                                  ! Humidity Indicating Conditions at Maximum Dry-Bulb {BasedOnField A3}
  96738,                                  ! Barometric Pressure {Pa}
  3.8,                                    ! Wind Speed {m/s}
  280,                                    ! Wind Direction {deg}
  0,                                      ! Sky Clearness
  0,                                      ! Rain Indicator
  0,                                      ! Snow Indicator
  21,                                     ! Day of Month
  1,                                      ! Month
  WinterDesignDay,                        ! Day Type
  0,                                      ! Daylight Saving Time Indicator
  Dewpoint,                               ! Humidity Indicating Type
  ,                                       ! Humidity Indicating Day Schedule Name
  DefaultMultipliers,                     ! Dry-Bulb Temperature Range Modifier Type
  ,                                       ! Dry-Bulb Temperature Range Modifier Schedule Name
  ASHRAEClearSky;                         ! Solar Model Indicator

OS:ComponentData,
  {083a5c10-529c-44bf-aa76-2376188869a9}, ! Handle
  Component Data 1,                       ! Name
  {7dfdfc82-41af-4fcb-b092-b17e2f61e40c}, ! UUID
  {9d0b2d4e-638d-449f-92cf-6377560b02c3}, ! Version UUID
  1366311569,                             ! Creation Timestamp
  1366311569,                             ! Version Timestamp
  {b115d75a-6dc3-4573-ba35-d993e8473d3e}; ! Name of Object 1

