
OS:Version,
  {8ca21b3b-ce84-4e5c-9df1-a1cd28aaed27}, ! Handle
  0.9.3;                                  ! Version Identifier

OS:SizingPeriod:DesignDay,
  {7c23d799-838a-4183-bb1a-4a007273b703}, ! Handle
  San Antonio Kelly Field Afb Ann Clg 2% Condns Enth=>MDB, ! Name
  30.4,                                   ! Maximum Dry-Bulb Temperature {C}
  11.7,                                   ! Daily Dry-Bulb Temperature Range {deltaC}
  79000,                                  ! Humidity Indicating Conditions at Maximum Dry-Bulb {BasedOnField A3}
  98851,                                  ! Barometric Pressure {Pa}
  4,                                      ! Wind Speed {m/s}
  150,                                    ! Wind Direction {deg}
  0,                                      ! Sky Clearness
  0,                                      ! Rain Indicator
  0,                                      ! Snow Indicator
  21,                                     ! Day of Month
  8,                                      ! Month
  SummerDesignDay,                        ! Day Type
  0,                                      ! Daylight Saving Time Indicator
  Enthalpy,                               ! Humidity Indicating Type
  ,                                       ! Humidity Indicating Day Schedule Name
  DefaultMultipliers,                     ! Dry-Bulb Temperature Range Modifier Type
  ,                                       ! Dry-Bulb Temperature Range Modifier Schedule Name
  ASHRAETau,                              ! Solar Model Indicator
  ,                                       ! Beam Solar Day Schedule Name
  ,                                       ! Diffuse Solar Day Schedule Name
  0.451,                                  ! ASHRAE Taub {dimensionless}
  2.14;                                   ! ASHRAE Taud {dimensionless}

OS:ComponentData,
  {a4b08521-0617-43f9-8705-a3277df11b74}, ! Handle
  Component Data 1,                       ! Name
  {fbd54625-7037-442e-803e-7f7eecd3b25e}, ! UUID
  {5bbe3fff-c790-456d-92a7-c6c0c5200727}, ! Version UUID
  1366310883,                             ! Creation Timestamp
  1366310883,                             ! Version Timestamp
  {7c23d799-838a-4183-bb1a-4a007273b703}; ! Name of Object 1

