
OS:Version,
  {eebaa3da-4ab8-4ed3-8536-361e0cacdc07}, ! Handle
  0.9.3;                                  ! Version Identifier

OS:SizingPeriod:DesignDay,
  {44f985a0-2bba-4507-aa9f-7e1630a7907e}, ! Handle
  Minot Faa Ap Ann Clg .4% Condns Enth=>MDB, ! Name
  29,                                     ! Maximum Dry-Bulb Temperature {C}
  12.2,                                   ! Daily Dry-Bulb Temperature Range {deltaC}
  71600,                                  ! Humidity Indicating Conditions at Maximum Dry-Bulb {BasedOnField A3}
  95198,                                  ! Barometric Pressure {Pa}
  5.8,                                    ! Wind Speed {m/s}
  160,                                    ! Wind Direction {deg}
  0,                                      ! Sky Clearness
  0,                                      ! Rain Indicator
  0,                                      ! Snow Indicator
  21,                                     ! Day of Month
  7,                                      ! Month
  SummerDesignDay,                        ! Day Type
  0,                                      ! Daylight Saving Time Indicator
  Enthalpy,                               ! Humidity Indicating Type
  ,                                       ! Humidity Indicating Day Schedule Name
  DefaultMultipliers,                     ! Dry-Bulb Temperature Range Modifier Type
  ,                                       ! Dry-Bulb Temperature Range Modifier Schedule Name
  ASHRAETau,                              ! Solar Model Indicator
  ,                                       ! Beam Solar Day Schedule Name
  ,                                       ! Diffuse Solar Day Schedule Name
  0.386,                                  ! ASHRAE Taub {dimensionless}
  2.249;                                  ! ASHRAE Taud {dimensionless}

OS:ComponentData,
  {2f57de7e-5a03-4aa6-9957-d8a38adcd4df}, ! Handle
  Component Data 1,                       ! Name
  {88225fb7-ead7-45a3-ad86-9b500daad88a}, ! UUID
  {2d42f0ab-837e-46bc-8e76-791caa96d448}, ! Version UUID
  1366309069,                             ! Creation Timestamp
  1366309069,                             ! Version Timestamp
  {44f985a0-2bba-4507-aa9f-7e1630a7907e}; ! Name of Object 1

