
OS:Version,
  {8dd91fc3-88e2-4c16-887b-45a91d8e5512}, ! Handle
  0.9.3;                                  ! Version Identifier

OS:SizingPeriod:DesignDay,
  {77a6d49f-6cca-46b7-bdc6-3405453e616b}, ! Handle
  Stillwater Rgnl Ann Clg 1% Condns WB=>MDB, ! Name
  33.4,                                   ! Maximum Dry-Bulb Temperature {C}
  12.5,                                   ! Daily Dry-Bulb Temperature Range {deltaC}
  25.5,                                   ! Humidity Indicating Conditions at Maximum Dry-Bulb {BasedOnField A3}
  97679,                                  ! Barometric Pressure {Pa}
  5.6,                                    ! Wind Speed {m/s}
  160,                                    ! Wind Direction {deg}
  0,                                      ! Sky Clearness
  0,                                      ! Rain Indicator
  0,                                      ! Snow Indicator
  21,                                     ! Day of Month
  7,                                      ! Month
  SummerDesignDay,                        ! Day Type
  0,                                      ! Daylight Saving Time Indicator
  Wetbulb,                                ! Humidity Indicating Type
  ,                                       ! Humidity Indicating Day Schedule Name
  DefaultMultipliers,                     ! Dry-Bulb Temperature Range Modifier Type
  ,                                       ! Dry-Bulb Temperature Range Modifier Schedule Name
  ASHRAETau,                              ! Solar Model Indicator
  ,                                       ! Beam Solar Day Schedule Name
  ,                                       ! Diffuse Solar Day Schedule Name
  0.433,                                  ! ASHRAE Taub {dimensionless}
  2.181;                                  ! ASHRAE Taud {dimensionless}

OS:ComponentData,
  {b8638ef7-e03c-4d13-be57-afd0edbd6efa}, ! Handle
  Component Data 1,                       ! Name
  {d2d05b17-e47c-40b0-91a8-28f8484d1f5c}, ! UUID
  {75051891-604d-45f6-963d-caf63faceadb}, ! Version UUID
  1366309945,                             ! Creation Timestamp
  1366309945,                             ! Version Timestamp
  {77a6d49f-6cca-46b7-bdc6-3405453e616b}; ! Name of Object 1

