
OS:Version,
  {ef0c638f-377b-424f-b424-a7aa294564e8}, ! Handle
  0.9.3;                                  ! Version Identifier

OS:SizingPeriod:DesignDay,
  {cf080287-786f-43ef-b965-7dfe3aa89e20}, ! Handle
  Miles City Municipal Arpt Ann Htg 99% Condns DB, ! Name
  -24.2,                                  ! Maximum Dry-Bulb Temperature {C}
  0,                                      ! Daily Dry-Bulb Temperature Range {deltaC}
  -24.2,                                  ! Humidity Indicating Conditions at Maximum Dry-Bulb {BasedOnField A3}
  92065,                                  ! Barometric Pressure {Pa}
  3.2,                                    ! Wind Speed {m/s}
  310,                                    ! Wind Direction {deg}
  0,                                      ! Sky Clearness
  0,                                      ! Rain Indicator
  0,                                      ! Snow Indicator
  21,                                     ! Day of Month
  1,                                      ! Month
  WinterDesignDay,                        ! Day Type
  0,                                      ! Daylight Saving Time Indicator
  Wetbulb,                                ! Humidity Indicating Type
  ,                                       ! Humidity Indicating Day Schedule Name
  DefaultMultipliers,                     ! Dry-Bulb Temperature Range Modifier Type
  ,                                       ! Dry-Bulb Temperature Range Modifier Schedule Name
  ASHRAEClearSky;                         ! Solar Model Indicator

OS:ComponentData,
  {fda42879-63b2-4a86-89d8-440ba0c8c740}, ! Handle
  Component Data 1,                       ! Name
  {02f974c2-fe96-4f64-b10f-b9a3a88cdd01}, ! UUID
  {525424aa-1ce2-4529-b65b-ece58eeb764d}, ! Version UUID
  1366308835,                             ! Creation Timestamp
  1366308835,                             ! Version Timestamp
  {cf080287-786f-43ef-b965-7dfe3aa89e20}; ! Name of Object 1

