
OS:Version,
  {a299089a-839f-49d1-843a-89aba58c98d3}, ! Handle
  0.9.3;                                  ! Version Identifier

OS:SizingPeriod:DesignDay,
  {6158ca50-6af2-4b86-96cd-4147fe74bb0a}, ! Handle
  Mccomb Pike County Ap Ann Hum_n 99% Condns DP=>MCDB, ! Name
  2.6,                                    ! Maximum Dry-Bulb Temperature {C}
  0,                                      ! Daily Dry-Bulb Temperature Range {deltaC}
  -7.7,                                   ! Humidity Indicating Conditions at Maximum Dry-Bulb {BasedOnField A3}
  99820,                                  ! Barometric Pressure {Pa}
  2.2,                                    ! Wind Speed {m/s}
  0,                                      ! Wind Direction {deg}
  0,                                      ! Sky Clearness
  0,                                      ! Rain Indicator
  0,                                      ! Snow Indicator
  21,                                     ! Day of Month
  1,                                      ! Month
  WinterDesignDay,                        ! Day Type
  0,                                      ! Daylight Saving Time Indicator
  Dewpoint,                               ! Humidity Indicating Type
  ,                                       ! Humidity Indicating Day Schedule Name
  DefaultMultipliers,                     ! Dry-Bulb Temperature Range Modifier Type
  ,                                       ! Dry-Bulb Temperature Range Modifier Schedule Name
  ASHRAEClearSky;                         ! Solar Model Indicator

OS:ComponentData,
  {6c105925-ad24-44e6-9637-a0ffdf21b393}, ! Handle
  Component Data 1,                       ! Name
  {8aaaccbf-4455-4c7e-ad8f-e2a41bc74bc5}, ! UUID
  {70ddb2ac-c173-4325-85ca-536d59165bee}, ! Version UUID
  1366308655,                             ! Creation Timestamp
  1366308655,                             ! Version Timestamp
  {6158ca50-6af2-4b86-96cd-4147fe74bb0a}; ! Name of Object 1

