
OS:Version,
  {23c8e928-a88d-40ee-bc3b-64f87881f1b0}, ! Handle
  0.9.3;                                  ! Version Identifier

OS:SizingPeriod:DesignDay,
  {0803a32f-cc11-4fb8-b669-810944accc3b}, ! Handle
  Sidney Municipal Ap Ann Hum_n 99.6% Condns DP=>MCDB, ! Name
  -20.9,                                  ! Maximum Dry-Bulb Temperature {C}
  0,                                      ! Daily Dry-Bulb Temperature Range {deltaC}
  -27.1,                                  ! Humidity Indicating Conditions at Maximum Dry-Bulb {BasedOnField A3}
  86514,                                  ! Barometric Pressure {Pa}
  4.1,                                    ! Wind Speed {m/s}
  300,                                    ! Wind Direction {deg}
  0,                                      ! Sky Clearness
  0,                                      ! Rain Indicator
  0,                                      ! Snow Indicator
  21,                                     ! Day of Month
  12,                                     ! Month
  WinterDesignDay,                        ! Day Type
  0,                                      ! Daylight Saving Time Indicator
  Dewpoint,                               ! Humidity Indicating Type
  ,                                       ! Humidity Indicating Day Schedule Name
  DefaultMultipliers,                     ! Dry-Bulb Temperature Range Modifier Type
  ,                                       ! Dry-Bulb Temperature Range Modifier Schedule Name
  ASHRAEClearSky;                         ! Solar Model Indicator

OS:ComponentData,
  {09d18bfb-22c4-4968-afea-7ae253461d35}, ! Handle
  Component Data 1,                       ! Name
  {dd698783-205f-4bb5-9089-794ae2657e38}, ! UUID
  {fb897af5-4e40-4c43-aad6-e469cec90c29}, ! Version UUID
  1366309202,                             ! Creation Timestamp
  1366309202,                             ! Version Timestamp
  {0803a32f-cc11-4fb8-b669-810944accc3b}; ! Name of Object 1

