
OS:Version,
  {6412822c-159c-41e3-a9a0-164fed00d7ac}, ! Handle
  0.9.3;                                  ! Version Identifier

OS:SizingPeriod:DesignDay,
  {4663fa68-6014-42f2-8938-86d5b5fa57c1}, ! Handle
  Soldotna Ann Hum_n 99.6% Condns DP=>MCDB, ! Name
  -28.6,                                  ! Maximum Dry-Bulb Temperature {C}
  0,                                      ! Daily Dry-Bulb Temperature Range {deltaC}
  -33.7,                                  ! Humidity Indicating Conditions at Maximum Dry-Bulb {BasedOnField A3}
  100917,                                 ! Barometric Pressure {Pa}
  0.9,                                    ! Wind Speed {m/s}
  100,                                    ! Wind Direction {deg}
  0,                                      ! Sky Clearness
  0,                                      ! Rain Indicator
  0,                                      ! Snow Indicator
  21,                                     ! Day of Month
  1,                                      ! Month
  WinterDesignDay,                        ! Day Type
  0,                                      ! Daylight Saving Time Indicator
  Dewpoint,                               ! Humidity Indicating Type
  ,                                       ! Humidity Indicating Day Schedule Name
  DefaultMultipliers,                     ! Dry-Bulb Temperature Range Modifier Type
  ,                                       ! Dry-Bulb Temperature Range Modifier Schedule Name
  ASHRAEClearSky;                         ! Solar Model Indicator

OS:ComponentData,
  {119e4450-7542-49df-9750-af65d9c79ba7}, ! Handle
  Component Data 1,                       ! Name
  {4f62962a-688f-4e69-bb57-f3067e6eae35}, ! UUID
  {7c80792f-5012-4f8a-b66d-35e517f2d1ce}, ! Version UUID
  1366305565,                             ! Creation Timestamp
  1366305565,                             ! Version Timestamp
  {4663fa68-6014-42f2-8938-86d5b5fa57c1}; ! Name of Object 1

