
OS:Version,
  {1076dfeb-bf72-4d8a-b488-df4e4312194a}, ! Handle
  0.9.3;                                  ! Version Identifier

OS:SizingPeriod:DesignDay,
  {57f3d119-f427-4b34-b4dc-7fed319805e1}, ! Handle
  Miami/Int'l Airport Ann Clg 2% Condns DP=>MDB, ! Name
  28.4,                                   ! Maximum Dry-Bulb Temperature {C}
  6.7,                                    ! Daily Dry-Bulb Temperature Range {deltaC}
  25,                                     ! Humidity Indicating Conditions at Maximum Dry-Bulb {BasedOnField A3}
  101277,                                 ! Barometric Pressure {Pa}
  4.5,                                    ! Wind Speed {m/s}
  140,                                    ! Wind Direction {deg}
  0,                                      ! Sky Clearness
  0,                                      ! Rain Indicator
  0,                                      ! Snow Indicator
  21,                                     ! Day of Month
  7,                                      ! Month
  SummerDesignDay,                        ! Day Type
  0,                                      ! Daylight Saving Time Indicator
  Dewpoint,                               ! Humidity Indicating Type
  ,                                       ! Humidity Indicating Day Schedule Name
  DefaultMultipliers,                     ! Dry-Bulb Temperature Range Modifier Type
  ,                                       ! Dry-Bulb Temperature Range Modifier Schedule Name
  ASHRAETau,                              ! Solar Model Indicator
  ,                                       ! Beam Solar Day Schedule Name
  ,                                       ! Diffuse Solar Day Schedule Name
  0.528,                                  ! ASHRAE Taub {dimensionless}
  1.905;                                  ! ASHRAE Taud {dimensionless}

