
OS:Version,
  {80a6e1d1-5b7d-450c-9552-2a16213dd15f}, ! Handle
  0.9.3;                                  ! Version Identifier

OS:SizingPeriod:DesignDay,
  {cd59f057-702a-4fbc-b879-ee0cc9eeedd9}, ! Handle
  NORFOLK Ann Htg 99.6% Condns DB,        ! Name
  -5.7,                                   ! Maximum Dry-Bulb Temperature {C}
  0,                                      ! Daily Dry-Bulb Temperature Range {deltaC}
  -5.7,                                   ! Humidity Indicating Conditions at Maximum Dry-Bulb {BasedOnField A3}
  101217,                                 ! Barometric Pressure {Pa}
  4.8,                                    ! Wind Speed {m/s}
  0,                                      ! Wind Direction {deg}
  0,                                      ! Sky Clearness
  0,                                      ! Rain Indicator
  0,                                      ! Snow Indicator
  21,                                     ! Day of Month
  1,                                      ! Month
  WinterDesignDay,                        ! Day Type
  0,                                      ! Daylight Saving Time Indicator
  Wetbulb,                                ! Humidity Indicating Type
  ,                                       ! Humidity Indicating Day Schedule Name
  DefaultMultipliers,                     ! Dry-Bulb Temperature Range Modifier Type
  ,                                       ! Dry-Bulb Temperature Range Modifier Schedule Name
  ASHRAEClearSky;                         ! Solar Model Indicator

OS:ComponentData,
  {3da6d9e4-934f-4c97-b5cc-a482b2f2d9bc}, ! Handle
  Component Data 1,                       ! Name
  {0597391e-5eb1-41a3-8ab6-8b676d2f3606}, ! UUID
  {d2b8bf08-ff04-473f-a023-b9a0b36de7cb}, ! Version UUID
  1366311122,                             ! Creation Timestamp
  1366311122,                             ! Version Timestamp
  {cd59f057-702a-4fbc-b879-ee0cc9eeedd9}; ! Name of Object 1

