
OS:Version,
  {6984b2ee-193e-4648-9458-17adb1f122ca}, ! Handle
  0.9.3;                                  ! Version Identifier

OS:SizingPeriod:DesignDay,
  {53146735-d5b8-4653-9d56-c86039d86ec8}, ! Handle
  San Diego/Int'l Airpor Ann Clg 1% Condns DB=>MWB, ! Name
  27.3,                                   ! Maximum Dry-Bulb Temperature {C}
  4.9,                                    ! Daily Dry-Bulb Temperature Range {deltaC}
  19.7,                                   ! Humidity Indicating Conditions at Maximum Dry-Bulb {BasedOnField A3}
  101217,                                 ! Barometric Pressure {Pa}
  4.6,                                    ! Wind Speed {m/s}
  300,                                    ! Wind Direction {deg}
  0,                                      ! Sky Clearness
  0,                                      ! Rain Indicator
  0,                                      ! Snow Indicator
  21,                                     ! Day of Month
  8,                                      ! Month
  SummerDesignDay,                        ! Day Type
  0,                                      ! Daylight Saving Time Indicator
  Wetbulb,                                ! Humidity Indicating Type
  ,                                       ! Humidity Indicating Day Schedule Name
  DefaultMultipliers,                     ! Dry-Bulb Temperature Range Modifier Type
  ,                                       ! Dry-Bulb Temperature Range Modifier Schedule Name
  ASHRAETau,                              ! Solar Model Indicator
  ,                                       ! Beam Solar Day Schedule Name
  ,                                       ! Diffuse Solar Day Schedule Name
  0.426,                                  ! ASHRAE Taub {dimensionless}
  2.214;                                  ! ASHRAE Taud {dimensionless}

OS:ComponentData,
  {f490caaa-52fc-4e48-976b-658e4e3bc705}, ! Handle
  Component Data 1,                       ! Name
  {695b0d9a-53b3-45b2-8ebc-6eaf309d554c}, ! UUID
  {8617c642-dc88-4091-a14f-40bf3beeaf8f}, ! Version UUID
  1366306573,                             ! Creation Timestamp
  1366306573,                             ! Version Timestamp
  {53146735-d5b8-4653-9d56-c86039d86ec8}; ! Name of Object 1

