
OS:Version,
  {dad473b5-cea1-4998-be26-1b4bd19c2d49}, ! Handle
  0.9.3;                                  ! Version Identifier

OS:SizingPeriod:DesignDay,
  {654cb4ca-7902-4d4a-a3a4-dce912bbe7b8}, ! Handle
  Reno Ann Htg Wind 99% Condns WS=>MCDB,  ! Name
  8.2,                                    ! Maximum Dry-Bulb Temperature {C}
  0,                                      ! Daily Dry-Bulb Temperature Range {deltaC}
  8.2,                                    ! Humidity Indicating Conditions at Maximum Dry-Bulb {BasedOnField A3}
  86219,                                  ! Barometric Pressure {Pa}
  11.9,                                   ! Wind Speed {m/s}
  180,                                    ! Wind Direction {deg}
  0,                                      ! Sky Clearness
  0,                                      ! Rain Indicator
  0,                                      ! Snow Indicator
  21,                                     ! Day of Month
  1,                                      ! Month
  WinterDesignDay,                        ! Day Type
  0,                                      ! Daylight Saving Time Indicator
  Wetbulb,                                ! Humidity Indicating Type
  ,                                       ! Humidity Indicating Day Schedule Name
  DefaultMultipliers,                     ! Dry-Bulb Temperature Range Modifier Type
  ,                                       ! Dry-Bulb Temperature Range Modifier Schedule Name
  ASHRAEClearSky;                         ! Solar Model Indicator

OS:ComponentData,
  {e52e481b-cb9e-4227-973e-77ece82f352f}, ! Handle
  Component Data 1,                       ! Name
  {483cd5a9-ea2c-4b82-96f9-e9aa93a0c5b7}, ! UUID
  {84e4767d-f13f-46ac-b6f8-59ca7b86ba97}, ! Version UUID
  1366309530,                             ! Creation Timestamp
  1366309530,                             ! Version Timestamp
  {654cb4ca-7902-4d4a-a3a4-dce912bbe7b8}; ! Name of Object 1

