
OS:Version,
  {05dce706-7a50-4752-a6ab-0980025621de}, ! Handle
  0.9.3;                                  ! Version Identifier

OS:SizingPeriod:DesignDay,
  {33ddc8a9-9926-453e-8106-45aa7d492bef}, ! Handle
  Mcallen Miller Intl Ap  Edinb Ann Clg 1% Condns Enth=>MDB, ! Name
  31.7,                                   ! Maximum Dry-Bulb Temperature {C}
  11.1,                                   ! Daily Dry-Bulb Temperature Range {deltaC}
  82600,                                  ! Humidity Indicating Conditions at Maximum Dry-Bulb {BasedOnField A3}
  100965,                                 ! Barometric Pressure {Pa}
  6.6,                                    ! Wind Speed {m/s}
  140,                                    ! Wind Direction {deg}
  0,                                      ! Sky Clearness
  0,                                      ! Rain Indicator
  0,                                      ! Snow Indicator
  21,                                     ! Day of Month
  8,                                      ! Month
  SummerDesignDay,                        ! Day Type
  0,                                      ! Daylight Saving Time Indicator
  Enthalpy,                               ! Humidity Indicating Type
  ,                                       ! Humidity Indicating Day Schedule Name
  DefaultMultipliers,                     ! Dry-Bulb Temperature Range Modifier Type
  ,                                       ! Dry-Bulb Temperature Range Modifier Schedule Name
  ASHRAETau,                              ! Solar Model Indicator
  ,                                       ! Beam Solar Day Schedule Name
  ,                                       ! Diffuse Solar Day Schedule Name
  0.461,                                  ! ASHRAE Taub {dimensionless}
  2.107;                                  ! ASHRAE Taud {dimensionless}

OS:ComponentData,
  {72cf7378-bb16-491c-9dce-27bb3d4b2709}, ! Handle
  Component Data 1,                       ! Name
  {889f9513-5f1e-4226-a49f-994bdcc8279e}, ! UUID
  {62cb6f26-c55e-4065-9d0a-41e8706c2ab4}, ! Version UUID
  1366310820,                             ! Creation Timestamp
  1366310820,                             ! Version Timestamp
  {33ddc8a9-9926-453e-8106-45aa7d492bef}; ! Name of Object 1

