
OS:Version,
  {8f5b71c3-d04d-48ae-99dc-4ccd77c3ae68}, ! Handle
  0.9.3;                                  ! Version Identifier

OS:SizingPeriod:DesignDay,
  {56e18733-3ba9-4687-aaa0-32ce83a00fd0}, ! Handle
  Springfield Ann Clg 2% Condns DP=>MDB,  ! Name
  27.7,                                   ! Maximum Dry-Bulb Temperature {C}
  10.7,                                   ! Daily Dry-Bulb Temperature Range {deltaC}
  23.1,                                   ! Humidity Indicating Conditions at Maximum Dry-Bulb {BasedOnField A3}
  99099,                                  ! Barometric Pressure {Pa}
  4.6,                                    ! Wind Speed {m/s}
  230,                                    ! Wind Direction {deg}
  0,                                      ! Sky Clearness
  0,                                      ! Rain Indicator
  0,                                      ! Snow Indicator
  21,                                     ! Day of Month
  7,                                      ! Month
  SummerDesignDay,                        ! Day Type
  0,                                      ! Daylight Saving Time Indicator
  Dewpoint,                               ! Humidity Indicating Type
  ,                                       ! Humidity Indicating Day Schedule Name
  DefaultMultipliers,                     ! Dry-Bulb Temperature Range Modifier Type
  ,                                       ! Dry-Bulb Temperature Range Modifier Schedule Name
  ASHRAETau,                              ! Solar Model Indicator
  ,                                       ! Beam Solar Day Schedule Name
  ,                                       ! Diffuse Solar Day Schedule Name
  0.463,                                  ! ASHRAE Taub {dimensionless}
  2.022;                                  ! ASHRAE Taud {dimensionless}

OS:ComponentData,
  {bec83ee9-0a16-4ce7-a100-72ed14bbbf6b}, ! Handle
  Component Data 1,                       ! Name
  {e087c9ac-f8ac-4099-8577-3ae38bbcf557}, ! UUID
  {b15272c0-7d89-40f0-85fd-2051974d96c6}, ! Version UUID
  1366307402,                             ! Creation Timestamp
  1366307402,                             ! Version Timestamp
  {56e18733-3ba9-4687-aaa0-32ce83a00fd0}; ! Name of Object 1

