
OS:Version,
  {cf873647-b780-46e6-8b52-6323c4add8d9}, ! Handle
  0.9.3;                                  ! Version Identifier

OS:SizingPeriod:DesignDay,
  {1fcb92d0-5ddd-4908-8525-028e3a386191}, ! Handle
  OKLAHOMA_CITY Ann Clg 2% Condns DB=>MWB, ! Name
  34.5,                                   ! Maximum Dry-Bulb Temperature {C}
  11.7,                                   ! Daily Dry-Bulb Temperature Range {deltaC}
  23.2,                                   ! Humidity Indicating Conditions at Maximum Dry-Bulb {BasedOnField A3}
  96646,                                  ! Barometric Pressure {Pa}
  5.5,                                    ! Wind Speed {m/s}
  170,                                    ! Wind Direction {deg}
  0,                                      ! Sky Clearness
  0,                                      ! Rain Indicator
  0,                                      ! Snow Indicator
  21,                                     ! Day of Month
  7,                                      ! Month
  SummerDesignDay,                        ! Day Type
  0,                                      ! Daylight Saving Time Indicator
  Wetbulb,                                ! Humidity Indicating Type
  ,                                       ! Humidity Indicating Day Schedule Name
  DefaultMultipliers,                     ! Dry-Bulb Temperature Range Modifier Type
  ,                                       ! Dry-Bulb Temperature Range Modifier Schedule Name
  ASHRAETau,                              ! Solar Model Indicator
  ,                                       ! Beam Solar Day Schedule Name
  ,                                       ! Diffuse Solar Day Schedule Name
  0.426,                                  ! ASHRAE Taub {dimensionless}
  2.214;                                  ! ASHRAE Taud {dimensionless}

OS:ComponentData,
  {403157df-632b-4dec-83d5-8692518e5e89}, ! Handle
  Component Data 1,                       ! Name
  {1a4cd483-2080-434e-bdf2-c322b60c82ba}, ! UUID
  {23cb51bd-9915-45a1-bf80-5b64f6c52fbf}, ! Version UUID
  1366309931,                             ! Creation Timestamp
  1366309931,                             ! Version Timestamp
  {1fcb92d0-5ddd-4908-8525-028e3a386191}; ! Name of Object 1

