
OS:Version,
  {62553800-f482-429b-a70e-1ab26c6f0154}, ! Handle
  0.9.3;                                  ! Version Identifier

OS:SizingPeriod:DesignDay,
  {59dbb7d5-af3a-4145-80d8-09612e7eae91}, ! Handle
  Wink Winkler County Ap Ann Clg 1% Condns DB=>MWB, ! Name
  38.9,                                   ! Maximum Dry-Bulb Temperature {C}
  14,                                     ! Daily Dry-Bulb Temperature Range {deltaC}
  19.4,                                   ! Humidity Indicating Conditions at Maximum Dry-Bulb {BasedOnField A3}
  91455,                                  ! Barometric Pressure {Pa}
  4.4,                                    ! Wind Speed {m/s}
  120,                                    ! Wind Direction {deg}
  0,                                      ! Sky Clearness
  0,                                      ! Rain Indicator
  0,                                      ! Snow Indicator
  21,                                     ! Day of Month
  7,                                      ! Month
  SummerDesignDay,                        ! Day Type
  0,                                      ! Daylight Saving Time Indicator
  Wetbulb,                                ! Humidity Indicating Type
  ,                                       ! Humidity Indicating Day Schedule Name
  DefaultMultipliers,                     ! Dry-Bulb Temperature Range Modifier Type
  ,                                       ! Dry-Bulb Temperature Range Modifier Schedule Name
  ASHRAETau,                              ! Solar Model Indicator
  ,                                       ! Beam Solar Day Schedule Name
  ,                                       ! Diffuse Solar Day Schedule Name
  0.461,                                  ! ASHRAE Taub {dimensionless}
  1.952;                                  ! ASHRAE Taud {dimensionless}

OS:ComponentData,
  {03cccf12-6844-4b95-afb0-bcd46afb1733}, ! Handle
  Component Data 1,                       ! Name
  {8617dc11-2811-483f-bd24-c41bec5621bf}, ! UUID
  {471b3567-089a-4756-894d-253542203a40}, ! Version UUID
  1366310940,                             ! Creation Timestamp
  1366310940,                             ! Version Timestamp
  {59dbb7d5-af3a-4145-80d8-09612e7eae91}; ! Name of Object 1

