
OS:Version,
  {a4d505e2-addb-412a-b26d-8c1e2e4a2cb8}, ! Handle
  0.9.3;                                  ! Version Identifier

OS:SizingPeriod:DesignDay,
  {12ef5a01-743a-45fa-aada-863c7a4b1c82}, ! Handle
  Wink Winkler County Ap Ann Hum_n 99% Condns DP=>MCDB, ! Name
  8.6,                                    ! Maximum Dry-Bulb Temperature {C}
  0,                                      ! Daily Dry-Bulb Temperature Range {deltaC}
  -16.1,                                  ! Humidity Indicating Conditions at Maximum Dry-Bulb {BasedOnField A3}
  91455,                                  ! Barometric Pressure {Pa}
  2.3,                                    ! Wind Speed {m/s}
  350,                                    ! Wind Direction {deg}
  0,                                      ! Sky Clearness
  0,                                      ! Rain Indicator
  0,                                      ! Snow Indicator
  21,                                     ! Day of Month
  12,                                     ! Month
  WinterDesignDay,                        ! Day Type
  0,                                      ! Daylight Saving Time Indicator
  Dewpoint,                               ! Humidity Indicating Type
  ,                                       ! Humidity Indicating Day Schedule Name
  DefaultMultipliers,                     ! Dry-Bulb Temperature Range Modifier Type
  ,                                       ! Dry-Bulb Temperature Range Modifier Schedule Name
  ASHRAEClearSky;                         ! Solar Model Indicator

OS:ComponentData,
  {0b71789b-d0af-4b79-b067-55531bc6e37e}, ! Handle
  Component Data 1,                       ! Name
  {a04a4abd-6426-4a4d-84b5-8bfc95fa07ce}, ! UUID
  {66eca1b4-b9ec-4d70-84dd-269d9059521b}, ! Version UUID
  1366310940,                             ! Creation Timestamp
  1366310940,                             ! Version Timestamp
  {12ef5a01-743a-45fa-aada-863c7a4b1c82}; ! Name of Object 1

