
OS:Version,
  {687c4612-ea46-43f8-ac9e-b67941c29907}, ! Handle
  0.9.3;                                  ! Version Identifier

OS:SizingPeriod:DesignDay,
  {5f9b10a5-80d1-489e-b57f-00fa0479cc07}, ! Handle
  New York J F Kennedy IntL Ar Ann Clg .4% Condns DB=>MWB, ! Name
  32.1,                                   ! Maximum Dry-Bulb Temperature {C}
  7.4,                                    ! Daily Dry-Bulb Temperature Range {deltaC}
  23.1,                                   ! Humidity Indicating Conditions at Maximum Dry-Bulb {BasedOnField A3}
  101265,                                 ! Barometric Pressure {Pa}
  5.6,                                    ! Wind Speed {m/s}
  230,                                    ! Wind Direction {deg}
  0,                                      ! Sky Clearness
  0,                                      ! Rain Indicator
  0,                                      ! Snow Indicator
  21,                                     ! Day of Month
  7,                                      ! Month
  SummerDesignDay,                        ! Day Type
  0,                                      ! Daylight Saving Time Indicator
  Wetbulb,                                ! Humidity Indicating Type
  ,                                       ! Humidity Indicating Day Schedule Name
  DefaultMultipliers,                     ! Dry-Bulb Temperature Range Modifier Type
  ,                                       ! Dry-Bulb Temperature Range Modifier Schedule Name
  ASHRAETau,                              ! Solar Model Indicator
  ,                                       ! Beam Solar Day Schedule Name
  ,                                       ! Diffuse Solar Day Schedule Name
  0.541,                                  ! ASHRAE Taub {dimensionless}
  1.8;                                    ! ASHRAE Taud {dimensionless}

OS:ComponentData,
  {20d4f7b9-75e1-4a9f-95fc-26cca786eac1}, ! Handle
  Component Data 1,                       ! Name
  {33eb50d2-ea0d-4e3b-bc16-73abc80abc26}, ! UUID
  {99cb28c0-41bb-4216-b7ab-3b3fcb62d7df}, ! Version UUID
  1366309665,                             ! Creation Timestamp
  1366309665,                             ! Version Timestamp
  {5f9b10a5-80d1-489e-b57f-00fa0479cc07}; ! Name of Object 1

