
OS:Version,
  {1876c6ef-7978-41e6-b152-16c787841d31}, ! Handle
  0.9.3;                                  ! Version Identifier

OS:SizingPeriod:DesignDay,
  {53c2e11a-351e-46bd-a4d9-dad198a5be29}, ! Handle
  West Palm Beach Ann Clg .4% Condns DP=>MDB, ! Name
  28.7,                                   ! Maximum Dry-Bulb Temperature {C}
  7.3,                                    ! Daily Dry-Bulb Temperature Range {deltaC}
  25.5,                                   ! Humidity Indicating Conditions at Maximum Dry-Bulb {BasedOnField A3}
  101253,                                 ! Barometric Pressure {Pa}
  5.2,                                    ! Wind Speed {m/s}
  130,                                    ! Wind Direction {deg}
  0,                                      ! Sky Clearness
  0,                                      ! Rain Indicator
  0,                                      ! Snow Indicator
  21,                                     ! Day of Month
  8,                                      ! Month
  SummerDesignDay,                        ! Day Type
  0,                                      ! Daylight Saving Time Indicator
  Dewpoint,                               ! Humidity Indicating Type
  ,                                       ! Humidity Indicating Day Schedule Name
  DefaultMultipliers,                     ! Dry-Bulb Temperature Range Modifier Type
  ,                                       ! Dry-Bulb Temperature Range Modifier Schedule Name
  ASHRAETau,                              ! Solar Model Indicator
  ,                                       ! Beam Solar Day Schedule Name
  ,                                       ! Diffuse Solar Day Schedule Name
  0.497,                                  ! ASHRAE Taub {dimensionless}
  2.018;                                  ! ASHRAE Taud {dimensionless}

OS:ComponentData,
  {49633f8c-97f3-45b6-b5b9-6940eaa0379b}, ! Handle
  Component Data 1,                       ! Name
  {5d505053-f79c-4868-ae6d-17a24f3af62e}, ! UUID
  {72a95865-9bb8-4242-89e4-7dea3f15e63d}, ! Version UUID
  1366306952,                             ! Creation Timestamp
  1366306952,                             ! Version Timestamp
  {53c2e11a-351e-46bd-a4d9-dad198a5be29}; ! Name of Object 1

