
OS:Version,
  {c3328d22-fa32-40fb-b662-129705ae5fbf}, ! Handle
  0.9.3;                                  ! Version Identifier

OS:SizingPeriod:DesignDay,
  {a877f66f-705d-4282-bd8f-813005d1a7ae}, ! Handle
  Vernal Ann Clg 2% Condns Enth=>MDB,     ! Name
  27.4,                                   ! Maximum Dry-Bulb Temperature {C}
  17.6,                                   ! Daily Dry-Bulb Temperature Range {deltaC}
  52600,                                  ! Humidity Indicating Conditions at Maximum Dry-Bulb {BasedOnField A3}
  83441,                                  ! Barometric Pressure {Pa}
  3.2,                                    ! Wind Speed {m/s}
  240,                                    ! Wind Direction {deg}
  0,                                      ! Sky Clearness
  0,                                      ! Rain Indicator
  0,                                      ! Snow Indicator
  21,                                     ! Day of Month
  7,                                      ! Month
  SummerDesignDay,                        ! Day Type
  0,                                      ! Daylight Saving Time Indicator
  Enthalpy,                               ! Humidity Indicating Type
  ,                                       ! Humidity Indicating Day Schedule Name
  DefaultMultipliers,                     ! Dry-Bulb Temperature Range Modifier Type
  ,                                       ! Dry-Bulb Temperature Range Modifier Schedule Name
  ASHRAETau,                              ! Solar Model Indicator
  ,                                       ! Beam Solar Day Schedule Name
  ,                                       ! Diffuse Solar Day Schedule Name
  0.396,                                  ! ASHRAE Taub {dimensionless}
  2.103;                                  ! ASHRAE Taud {dimensionless}

OS:ComponentData,
  {a1fcca17-aeac-40c0-ad07-6c5693599c1d}, ! Handle
  Component Data 1,                       ! Name
  {6f89fae5-9999-48bd-9e5d-27e2974ec1aa}, ! UUID
  {d11a5e4a-67ff-48bf-bcdd-637757046142}, ! Version UUID
  1366311006,                             ! Creation Timestamp
  1366311006,                             ! Version Timestamp
  {a877f66f-705d-4282-bd8f-813005d1a7ae}; ! Name of Object 1

