
OS:Version,
  {237f78cd-56c8-4ac4-b03e-dfa82f531312}, ! Handle
  0.9.3;                                  ! Version Identifier

OS:SizingPeriod:DesignDay,
  {c7f70696-17a0-4b3d-aec7-962dbcbeb5f4}, ! Handle
  Watertown Ann Clg 1% Condns WB=>MDB,    ! Name
  28.5,                                   ! Maximum Dry-Bulb Temperature {C}
  11.3,                                   ! Daily Dry-Bulb Temperature Range {deltaC}
  25.4,                                   ! Humidity Indicating Conditions at Maximum Dry-Bulb {BasedOnField A3}
  98311,                                  ! Barometric Pressure {Pa}
  4.5,                                    ! Wind Speed {m/s}
  220,                                    ! Wind Direction {deg}
  0,                                      ! Sky Clearness
  0,                                      ! Rain Indicator
  0,                                      ! Snow Indicator
  21,                                     ! Day of Month
  7,                                      ! Month
  SummerDesignDay,                        ! Day Type
  0,                                      ! Daylight Saving Time Indicator
  Wetbulb,                                ! Humidity Indicating Type
  ,                                       ! Humidity Indicating Day Schedule Name
  DefaultMultipliers,                     ! Dry-Bulb Temperature Range Modifier Type
  ,                                       ! Dry-Bulb Temperature Range Modifier Schedule Name
  ASHRAETau,                              ! Solar Model Indicator
  ,                                       ! Beam Solar Day Schedule Name
  ,                                       ! Diffuse Solar Day Schedule Name
  0.44,                                   ! ASHRAE Taub {dimensionless}
  2.094;                                  ! ASHRAE Taud {dimensionless}

OS:ComponentData,
  {6e66a3b9-71be-4b1a-82fb-889967b7b1ff}, ! Handle
  Component Data 1,                       ! Name
  {e8800c89-0a81-4362-b0a1-c5e06a0a9ddc}, ! UUID
  {1ac90612-97e9-42d3-b2a0-d15a512998aa}, ! Version UUID
  1366311592,                             ! Creation Timestamp
  1366311592,                             ! Version Timestamp
  {c7f70696-17a0-4b3d-aec7-962dbcbeb5f4}; ! Name of Object 1

