
OS:Version,
  {8810cb68-9b9c-47d7-9888-ab98e8f7221a}, ! Handle
  0.9.3;                                  ! Version Identifier

OS:SizingPeriod:DesignDay,
  {b408b476-6e5d-434e-82e3-fddcccea9da0}, ! Handle
  Zanesville Municipal Ap Ann Clg 2% Condns WB=>MDB, ! Name
  27.7,                                   ! Maximum Dry-Bulb Temperature {C}
  11.2,                                   ! Daily Dry-Bulb Temperature Range {deltaC}
  23.1,                                   ! Humidity Indicating Conditions at Maximum Dry-Bulb {BasedOnField A3}
  98147,                                  ! Barometric Pressure {Pa}
  4.2,                                    ! Wind Speed {m/s}
  240,                                    ! Wind Direction {deg}
  0,                                      ! Sky Clearness
  0,                                      ! Rain Indicator
  0,                                      ! Snow Indicator
  21,                                     ! Day of Month
  7,                                      ! Month
  SummerDesignDay,                        ! Day Type
  0,                                      ! Daylight Saving Time Indicator
  Wetbulb,                                ! Humidity Indicating Type
  ,                                       ! Humidity Indicating Day Schedule Name
  DefaultMultipliers,                     ! Dry-Bulb Temperature Range Modifier Type
  ,                                       ! Dry-Bulb Temperature Range Modifier Schedule Name
  ASHRAETau,                              ! Solar Model Indicator
  ,                                       ! Beam Solar Day Schedule Name
  ,                                       ! Diffuse Solar Day Schedule Name
  0.485,                                  ! ASHRAE Taub {dimensionless}
  1.937;                                  ! ASHRAE Taud {dimensionless}

OS:ComponentData,
  {4ae43a60-6f4a-4944-898b-ccf5971598d1}, ! Handle
  Component Data 1,                       ! Name
  {2b471b9f-f15b-4fca-b1a5-6d5eed69b72e}, ! UUID
  {cfddfb33-dacf-498a-92f0-27723bd0007e}, ! Version UUID
  1366309874,                             ! Creation Timestamp
  1366309874,                             ! Version Timestamp
  {b408b476-6e5d-434e-82e3-fddcccea9da0}; ! Name of Object 1

