
OS:Version,
  {2c009cb2-7939-445b-8010-47f5b35ea632}, ! Handle
  0.9.3;                                  ! Version Identifier

OS:SizingPeriod:DesignDay,
  {f99f35f6-14e5-4a4b-b114-0a021bf5f0f5}, ! Handle
  St Cloud Regional Arpt Ann Clg .4% Condns DB=>MWB, ! Name
  32.2,                                   ! Maximum Dry-Bulb Temperature {C}
  12.3,                                   ! Daily Dry-Bulb Temperature Range {deltaC}
  22.7,                                   ! Humidity Indicating Conditions at Maximum Dry-Bulb {BasedOnField A3}
  97644,                                  ! Barometric Pressure {Pa}
  5.1,                                    ! Wind Speed {m/s}
  180,                                    ! Wind Direction {deg}
  0,                                      ! Sky Clearness
  0,                                      ! Rain Indicator
  0,                                      ! Snow Indicator
  21,                                     ! Day of Month
  7,                                      ! Month
  SummerDesignDay,                        ! Day Type
  0,                                      ! Daylight Saving Time Indicator
  Wetbulb,                                ! Humidity Indicating Type
  ,                                       ! Humidity Indicating Day Schedule Name
  DefaultMultipliers,                     ! Dry-Bulb Temperature Range Modifier Type
  ,                                       ! Dry-Bulb Temperature Range Modifier Schedule Name
  ASHRAETau,                              ! Solar Model Indicator
  ,                                       ! Beam Solar Day Schedule Name
  ,                                       ! Diffuse Solar Day Schedule Name
  0.405,                                  ! ASHRAE Taub {dimensionless}
  2.216;                                  ! ASHRAE Taud {dimensionless}

OS:ComponentData,
  {e69615da-1e90-4153-8ee9-1a9971dd35b9}, ! Handle
  Component Data 1,                       ! Name
  {81367bec-48af-4ed9-b512-3727f5583636}, ! UUID
  {ce83e3ec-3690-4cde-a08b-e540319f2678}, ! Version UUID
  1366308428,                             ! Creation Timestamp
  1366308428,                             ! Version Timestamp
  {f99f35f6-14e5-4a4b-b114-0a021bf5f0f5}; ! Name of Object 1

