
OS:Version,
  {0f7eae61-7c92-4606-8892-27698c25ed5e}, ! Handle
  0.9.3;                                  ! Version Identifier

OS:SizingPeriod:DesignDay,
  {1192e6dd-c1cc-4acc-b009-8ad8719211c6}, ! Handle
  MILWAUKEE Ann Clg 2% Condns WB=>MDB,    ! Name
  27.1,                                   ! Maximum Dry-Bulb Temperature {C}
  8.7,                                    ! Daily Dry-Bulb Temperature Range {deltaC}
  22.9,                                   ! Humidity Indicating Conditions at Maximum Dry-Bulb {BasedOnField A3}
  98816,                                  ! Barometric Pressure {Pa}
  6.4,                                    ! Wind Speed {m/s}
  240,                                    ! Wind Direction {deg}
  0,                                      ! Sky Clearness
  0,                                      ! Rain Indicator
  0,                                      ! Snow Indicator
  21,                                     ! Day of Month
  7,                                      ! Month
  SummerDesignDay,                        ! Day Type
  0,                                      ! Daylight Saving Time Indicator
  Wetbulb,                                ! Humidity Indicating Type
  ,                                       ! Humidity Indicating Day Schedule Name
  DefaultMultipliers,                     ! Dry-Bulb Temperature Range Modifier Type
  ,                                       ! Dry-Bulb Temperature Range Modifier Schedule Name
  ASHRAETau,                              ! Solar Model Indicator
  ,                                       ! Beam Solar Day Schedule Name
  ,                                       ! Diffuse Solar Day Schedule Name
  0.452,                                  ! ASHRAE Taub {dimensionless}
  2.061;                                  ! ASHRAE Taud {dimensionless}

OS:ComponentData,
  {ae42a7e8-8467-43d1-87be-b51e7f2d4a12}, ! Handle
  Component Data 1,                       ! Name
  {aa8c02a0-8649-4221-a53d-8c15925c313b}, ! UUID
  {599e1ae2-c286-4422-afde-10f76317c4f8}, ! Version UUID
  1366311563,                             ! Creation Timestamp
  1366311563,                             ! Version Timestamp
  {1192e6dd-c1cc-4acc-b009-8ad8719211c6}; ! Name of Object 1

