
OS:Version,
  {7f677946-36cb-468d-ac62-50c4b179c232}, ! Handle
  0.9.3;                                  ! Version Identifier

OS:SizingPeriod:DesignDay,
  {60e3aa3c-be6f-4479-98cb-b5a01d406be6}, ! Handle
  SHERIDAN Ann Htg Wind 99.6% Condns WS=>MCDB, ! Name
  1.2,                                    ! Maximum Dry-Bulb Temperature {C}
  0,                                      ! Daily Dry-Bulb Temperature Range {deltaC}
  1.2,                                    ! Humidity Indicating Conditions at Maximum Dry-Bulb {BasedOnField A3}
  87619,                                  ! Barometric Pressure {Pa}
  14.9,                                   ! Wind Speed {m/s}
  280,                                    ! Wind Direction {deg}
  0,                                      ! Sky Clearness
  0,                                      ! Rain Indicator
  0,                                      ! Snow Indicator
  21,                                     ! Day of Month
  12,                                     ! Month
  WinterDesignDay,                        ! Day Type
  0,                                      ! Daylight Saving Time Indicator
  Wetbulb,                                ! Humidity Indicating Type
  ,                                       ! Humidity Indicating Day Schedule Name
  DefaultMultipliers,                     ! Dry-Bulb Temperature Range Modifier Type
  ,                                       ! Dry-Bulb Temperature Range Modifier Schedule Name
  ASHRAEClearSky;                         ! Solar Model Indicator

OS:ComponentData,
  {3be6931c-48f2-404c-a07c-02b22d66df23}, ! Handle
  Component Data 1,                       ! Name
  {2cc7b87e-56ff-4699-93d7-7932fd6c3c94}, ! UUID
  {5ef1f777-eccc-4f38-a369-bdc7d1b125d8}, ! Version UUID
  1366311774,                             ! Creation Timestamp
  1366311774,                             ! Version Timestamp
  {60e3aa3c-be6f-4479-98cb-b5a01d406be6}; ! Name of Object 1

