
OS:Version,
  {5d68a799-2ed1-43ec-a2e4-83dec0ec9817}, ! Handle
  0.9.3;                                  ! Version Identifier

OS:SizingPeriod:DesignDay,
  {6a42b02c-3229-4447-a5af-9b881369aacc}, ! Handle
  Salt Lake City Ann Clg 2% Condns DP=>MDB, ! Name
  23.3,                                   ! Maximum Dry-Bulb Temperature {C}
  14.4,                                   ! Daily Dry-Bulb Temperature Range {deltaC}
  13.7,                                   ! Humidity Indicating Conditions at Maximum Dry-Bulb {BasedOnField A3}
  86779,                                  ! Barometric Pressure {Pa}
  5.1,                                    ! Wind Speed {m/s}
  340,                                    ! Wind Direction {deg}
  0,                                      ! Sky Clearness
  0,                                      ! Rain Indicator
  0,                                      ! Snow Indicator
  21,                                     ! Day of Month
  7,                                      ! Month
  SummerDesignDay,                        ! Day Type
  0,                                      ! Daylight Saving Time Indicator
  Dewpoint,                               ! Humidity Indicating Type
  ,                                       ! Humidity Indicating Day Schedule Name
  DefaultMultipliers,                     ! Dry-Bulb Temperature Range Modifier Type
  ,                                       ! Dry-Bulb Temperature Range Modifier Schedule Name
  ASHRAETau,                              ! Solar Model Indicator
  ,                                       ! Beam Solar Day Schedule Name
  ,                                       ! Diffuse Solar Day Schedule Name
  0.44,                                   ! ASHRAE Taub {dimensionless}
  1.968;                                  ! ASHRAE Taud {dimensionless}

OS:ComponentData,
  {b073c3c4-1723-47ad-8b7a-1e27553a5396}, ! Handle
  Component Data 1,                       ! Name
  {5a6797db-5f02-4987-aa66-c5f950041c58}, ! UUID
  {1d636cf7-7477-4baf-85e2-5d68c1569bb5}, ! Version UUID
  1366310994,                             ! Creation Timestamp
  1366310994,                             ! Version Timestamp
  {6a42b02c-3229-4447-a5af-9b881369aacc}; ! Name of Object 1

