
OS:Version,
  {397ee28a-c7eb-49d8-a52b-a2c672289322}, ! Handle
  0.9.3;                                  ! Version Identifier

OS:SizingPeriod:DesignDay,
  {6081475f-bae8-4200-bb42-77ddd80e7a03}, ! Handle
  OLYMPIA Ann Htg Wind 99.6% Condns WS=>MCDB, ! Name
  9.4,                                    ! Maximum Dry-Bulb Temperature {C}
  0,                                      ! Daily Dry-Bulb Temperature Range {deltaC}
  9.4,                                    ! Humidity Indicating Conditions at Maximum Dry-Bulb {BasedOnField A3}
  100594,                                 ! Barometric Pressure {Pa}
  10.8,                                   ! Wind Speed {m/s}
  40,                                     ! Wind Direction {deg}
  0,                                      ! Sky Clearness
  0,                                      ! Rain Indicator
  0,                                      ! Snow Indicator
  21,                                     ! Day of Month
  12,                                     ! Month
  WinterDesignDay,                        ! Day Type
  0,                                      ! Daylight Saving Time Indicator
  Wetbulb,                                ! Humidity Indicating Type
  ,                                       ! Humidity Indicating Day Schedule Name
  DefaultMultipliers,                     ! Dry-Bulb Temperature Range Modifier Type
  ,                                       ! Dry-Bulb Temperature Range Modifier Schedule Name
  ASHRAEClearSky;                         ! Solar Model Indicator

OS:ComponentData,
  {3c8d15f5-d629-432e-b1a8-e7d91119fa89}, ! Handle
  Component Data 1,                       ! Name
  {3d40a4f2-0510-4989-aca8-784d3f594d14}, ! UUID
  {368af52f-679c-453d-88a1-704cc73994e8}, ! Version UUID
  1366311303,                             ! Creation Timestamp
  1366311303,                             ! Version Timestamp
  {6081475f-bae8-4200-bb42-77ddd80e7a03}; ! Name of Object 1

