
OS:Version,
  {52270a7a-d591-4f31-9c9f-7c917f32be00}, ! Handle
  0.9.3;                                  ! Version Identifier

OS:SizingPeriod:DesignDay,
  {846adf29-a361-4b94-aa81-4414e639ebd8}, ! Handle
  Talkeetna State Arpt Ann Htg Wind 99% Condns WS=>MCDB, ! Name
  -8.7,                                   ! Maximum Dry-Bulb Temperature {C}
  0,                                      ! Daily Dry-Bulb Temperature Range {deltaC}
  -8.7,                                   ! Humidity Indicating Conditions at Maximum Dry-Bulb {BasedOnField A3}
  100070,                                 ! Barometric Pressure {Pa}
  8.2,                                    ! Wind Speed {m/s}
  30,                                     ! Wind Direction {deg}
  0,                                      ! Sky Clearness
  0,                                      ! Rain Indicator
  0,                                      ! Snow Indicator
  21,                                     ! Day of Month
  1,                                      ! Month
  WinterDesignDay,                        ! Day Type
  0,                                      ! Daylight Saving Time Indicator
  Wetbulb,                                ! Humidity Indicating Type
  ,                                       ! Humidity Indicating Day Schedule Name
  DefaultMultipliers,                     ! Dry-Bulb Temperature Range Modifier Type
  ,                                       ! Dry-Bulb Temperature Range Modifier Schedule Name
  ASHRAEClearSky;                         ! Solar Model Indicator

OS:ComponentData,
  {e8371767-0a73-436a-9001-72557397a057}, ! Handle
  Component Data 1,                       ! Name
  {42566f4f-e7fb-4f93-a053-b00270881d9b}, ! UUID
  {6989976a-021e-44ce-96fc-bf6675bcc104}, ! Version UUID
  1366305587,                             ! Creation Timestamp
  1366305587,                             ! Version Timestamp
  {846adf29-a361-4b94-aa81-4414e639ebd8}; ! Name of Object 1

