
OS:Version,
  {0c735478-bb52-4058-a386-938eafc00e01}, ! Handle
  0.9.3;                                  ! Version Identifier

OS:SizingPeriod:DesignDay,
  {f577c326-0b11-42c7-bbdb-b18977e85f99}, ! Handle
  Pocatello Ann Clg .4% Condns DB=>MWB,   ! Name
  34.7,                                   ! Maximum Dry-Bulb Temperature {C}
  18.7,                                   ! Daily Dry-Bulb Temperature Range {deltaC}
  16.6,                                   ! Humidity Indicating Conditions at Maximum Dry-Bulb {BasedOnField A3}
  85966,                                  ! Barometric Pressure {Pa}
  4.8,                                    ! Wind Speed {m/s}
  240,                                    ! Wind Direction {deg}
  0,                                      ! Sky Clearness
  0,                                      ! Rain Indicator
  0,                                      ! Snow Indicator
  21,                                     ! Day of Month
  7,                                      ! Month
  SummerDesignDay,                        ! Day Type
  0,                                      ! Daylight Saving Time Indicator
  Wetbulb,                                ! Humidity Indicating Type
  ,                                       ! Humidity Indicating Day Schedule Name
  DefaultMultipliers,                     ! Dry-Bulb Temperature Range Modifier Type
  ,                                       ! Dry-Bulb Temperature Range Modifier Schedule Name
  ASHRAETau,                              ! Solar Model Indicator
  ,                                       ! Beam Solar Day Schedule Name
  ,                                       ! Diffuse Solar Day Schedule Name
  0.416,                                  ! ASHRAE Taub {dimensionless}
  2.003;                                  ! ASHRAE Taud {dimensionless}

OS:ComponentData,
  {9e78aee2-129d-40d6-a307-3b41b5f49919}, ! Handle
  Component Data 1,                       ! Name
  {8b871083-453f-467c-ae0b-9b4413479408}, ! UUID
  {c275efc1-4be4-441c-b1fd-a542ad8732b7}, ! Version UUID
  1366307303,                             ! Creation Timestamp
  1366307303,                             ! Version Timestamp
  {f577c326-0b11-42c7-bbdb-b18977e85f99}; ! Name of Object 1

