
OS:Version,
  {8de1ed5e-cc72-4769-a074-7187e693be7a}, ! Handle
  0.9.3;                                  ! Version Identifier

OS:SizingPeriod:DesignDay,
  {76ccc82f-efcd-41f8-b00c-d67b7a94b826}, ! Handle
  Macdill Afb Ann Clg 1% Condns WB=>MDB,  ! Name
  30.6,                                   ! Maximum Dry-Bulb Temperature {C}
  7.9,                                    ! Daily Dry-Bulb Temperature Range {deltaC}
  26.7,                                   ! Humidity Indicating Conditions at Maximum Dry-Bulb {BasedOnField A3}
  101229,                                 ! Barometric Pressure {Pa}
  3.1,                                    ! Wind Speed {m/s}
  270,                                    ! Wind Direction {deg}
  0,                                      ! Sky Clearness
  0,                                      ! Rain Indicator
  0,                                      ! Snow Indicator
  21,                                     ! Day of Month
  8,                                      ! Month
  SummerDesignDay,                        ! Day Type
  0,                                      ! Daylight Saving Time Indicator
  Wetbulb,                                ! Humidity Indicating Type
  ,                                       ! Humidity Indicating Day Schedule Name
  DefaultMultipliers,                     ! Dry-Bulb Temperature Range Modifier Type
  ,                                       ! Dry-Bulb Temperature Range Modifier Schedule Name
  ASHRAETau,                              ! Solar Model Indicator
  ,                                       ! Beam Solar Day Schedule Name
  ,                                       ! Diffuse Solar Day Schedule Name
  0.491,                                  ! ASHRAE Taub {dimensionless}
  2.016;                                  ! ASHRAE Taud {dimensionless}

OS:ComponentData,
  {da59f335-f804-4cfd-a822-3f42325c8ff0}, ! Handle
  Component Data 1,                       ! Name
  {85db2a03-7fdf-4443-960c-4f4c5508903a}, ! UUID
  {115f884d-268f-456d-be8a-65f682cafae8}, ! Version UUID
  1366306844,                             ! Creation Timestamp
  1366306844,                             ! Version Timestamp
  {76ccc82f-efcd-41f8-b00c-d67b7a94b826}; ! Name of Object 1

