
OS:Version,
  {247fd930-95f7-42b4-91ec-53131976e5bf}, ! Handle
  0.9.3;                                  ! Version Identifier

OS:SizingPeriod:DesignDay,
  {5d277c83-7fb7-4270-9726-02d36e7d8ec4}, ! Handle
  Syracuse Hancock IntL Arpt Ann Clg 1% Condns WB=>MDB, ! Name
  27.9,                                   ! Maximum Dry-Bulb Temperature {C}
  10.8,                                   ! Daily Dry-Bulb Temperature Range {deltaC}
  23.1,                                   ! Humidity Indicating Conditions at Maximum Dry-Bulb {BasedOnField A3}
  99832,                                  ! Barometric Pressure {Pa}
  4.4,                                    ! Wind Speed {m/s}
  260,                                    ! Wind Direction {deg}
  0,                                      ! Sky Clearness
  0,                                      ! Rain Indicator
  0,                                      ! Snow Indicator
  21,                                     ! Day of Month
  7,                                      ! Month
  SummerDesignDay,                        ! Day Type
  0,                                      ! Daylight Saving Time Indicator
  Wetbulb,                                ! Humidity Indicating Type
  ,                                       ! Humidity Indicating Day Schedule Name
  DefaultMultipliers,                     ! Dry-Bulb Temperature Range Modifier Type
  ,                                       ! Dry-Bulb Temperature Range Modifier Schedule Name
  ASHRAETau,                              ! Solar Model Indicator
  ,                                       ! Beam Solar Day Schedule Name
  ,                                       ! Diffuse Solar Day Schedule Name
  0.47,                                   ! ASHRAE Taub {dimensionless}
  1.975;                                  ! ASHRAE Taud {dimensionless}

OS:ComponentData,
  {41a57793-7941-46a9-ac13-fcd8e5af878a}, ! Handle
  Component Data 1,                       ! Name
  {bcbfd14d-1324-4500-bf7e-1ac06fdfdb65}, ! UUID
  {aa3077b3-32b1-4e4c-b727-e400f297b63a}, ! Version UUID
  1366309735,                             ! Creation Timestamp
  1366309735,                             ! Version Timestamp
  {5d277c83-7fb7-4270-9726-02d36e7d8ec4}; ! Name of Object 1

