
OS:Version,
  {4503aa2d-3a2d-4b93-b129-94948881e5dc}, ! Handle
  0.9.3;                                  ! Version Identifier

OS:SizingPeriod:DesignDay,
  {3a17e348-9c8c-48be-96b6-df7ef1c7a3a0}, ! Handle
  Manchester Airport Ann Clg .4% Condns Enth=>MDB, ! Name
  30.6,                                   ! Maximum Dry-Bulb Temperature {C}
  10.9,                                   ! Daily Dry-Bulb Temperature Range {deltaC}
  73500,                                  ! Humidity Indicating Conditions at Maximum Dry-Bulb {BasedOnField A3}
  100499,                                 ! Barometric Pressure {Pa}
  4.2,                                    ! Wind Speed {m/s}
  270,                                    ! Wind Direction {deg}
  0,                                      ! Sky Clearness
  0,                                      ! Rain Indicator
  0,                                      ! Snow Indicator
  21,                                     ! Day of Month
  7,                                      ! Month
  SummerDesignDay,                        ! Day Type
  0,                                      ! Daylight Saving Time Indicator
  Enthalpy,                               ! Humidity Indicating Type
  ,                                       ! Humidity Indicating Day Schedule Name
  DefaultMultipliers,                     ! Dry-Bulb Temperature Range Modifier Type
  ,                                       ! Dry-Bulb Temperature Range Modifier Schedule Name
  ASHRAETau,                              ! Solar Model Indicator
  ,                                       ! Beam Solar Day Schedule Name
  ,                                       ! Diffuse Solar Day Schedule Name
  0.466,                                  ! ASHRAE Taub {dimensionless}
  2.001;                                  ! ASHRAE Taud {dimensionless}

OS:ComponentData,
  {70b3285a-bd3b-4755-baae-e99b870699dc}, ! Handle
  Component Data 1,                       ! Name
  {660ba426-88bd-4a87-8b03-60df5dfbffcb}, ! UUID
  {d89b4e88-e5d5-45e1-b271-e889ce42a4f1}, ! Version UUID
  1366309266,                             ! Creation Timestamp
  1366309266,                             ! Version Timestamp
  {3a17e348-9c8c-48be-96b6-df7ef1c7a3a0}; ! Name of Object 1

