
OS:Version,
  {62de443d-ac06-41fe-bb4c-b3bff1302ba1}, ! Handle
  0.9.3;                                  ! Version Identifier

OS:SizingPeriod:DesignDay,
  {e982b9a0-8a3d-4ab0-a5d8-4849588d5075}, ! Handle
  WILKES-BARRE Ann Clg 1% Condns DB=>MWB, ! Name
  30,                                     ! Maximum Dry-Bulb Temperature {C}
  10.8,                                   ! Daily Dry-Bulb Temperature Range {deltaC}
  21.4,                                   ! Humidity Indicating Conditions at Maximum Dry-Bulb {BasedOnField A3}
  97901,                                  ! Barometric Pressure {Pa}
  4.5,                                    ! Wind Speed {m/s}
  240,                                    ! Wind Direction {deg}
  0,                                      ! Sky Clearness
  0,                                      ! Rain Indicator
  0,                                      ! Snow Indicator
  21,                                     ! Day of Month
  7,                                      ! Month
  SummerDesignDay,                        ! Day Type
  0,                                      ! Daylight Saving Time Indicator
  Wetbulb,                                ! Humidity Indicating Type
  ,                                       ! Humidity Indicating Day Schedule Name
  DefaultMultipliers,                     ! Dry-Bulb Temperature Range Modifier Type
  ,                                       ! Dry-Bulb Temperature Range Modifier Schedule Name
  ASHRAETau,                              ! Solar Model Indicator
  ,                                       ! Beam Solar Day Schedule Name
  ,                                       ! Diffuse Solar Day Schedule Name
  0.477,                                  ! ASHRAE Taub {dimensionless}
  1.945;                                  ! ASHRAE Taud {dimensionless}

OS:ComponentData,
  {76cd13f8-eaea-4f59-8894-c635f0e0d7e4}, ! Handle
  Component Data 1,                       ! Name
  {89bdb4d8-f327-4a48-8639-ed5a6b88880a}, ! UUID
  {63985910-f799-4574-8f8a-2388e71de7b1}, ! Version UUID
  1366310270,                             ! Creation Timestamp
  1366310270,                             ! Version Timestamp
  {e982b9a0-8a3d-4ab0-a5d8-4849588d5075}; ! Name of Object 1

