
OS:Version,
  {8537fc93-f11d-4faf-82ef-da136283e013}, ! Handle
  0.9.3;                                  ! Version Identifier

OS:SizingPeriod:DesignDay,
  {7aeaa56b-1eba-4ae7-b331-5bb955465a07}, ! Handle
  South Bend Michiana Rgnl Ap Ann Clg .4% Condns DB=>MWB, ! Name
  32.7,                                   ! Maximum Dry-Bulb Temperature {C}
  10.4,                                   ! Daily Dry-Bulb Temperature Range {deltaC}
  23.5,                                   ! Humidity Indicating Conditions at Maximum Dry-Bulb {BasedOnField A3}
  98522,                                  ! Barometric Pressure {Pa}
  5.2,                                    ! Wind Speed {m/s}
  220,                                    ! Wind Direction {deg}
  0,                                      ! Sky Clearness
  0,                                      ! Rain Indicator
  0,                                      ! Snow Indicator
  21,                                     ! Day of Month
  7,                                      ! Month
  SummerDesignDay,                        ! Day Type
  0,                                      ! Daylight Saving Time Indicator
  Wetbulb,                                ! Humidity Indicating Type
  ,                                       ! Humidity Indicating Day Schedule Name
  DefaultMultipliers,                     ! Dry-Bulb Temperature Range Modifier Type
  ,                                       ! Dry-Bulb Temperature Range Modifier Schedule Name
  ASHRAETau,                              ! Solar Model Indicator
  ,                                       ! Beam Solar Day Schedule Name
  ,                                       ! Diffuse Solar Day Schedule Name
  0.433,                                  ! ASHRAE Taub {dimensionless}
  2.144;                                  ! ASHRAE Taud {dimensionless}

OS:ComponentData,
  {93a90053-e8fe-4972-a805-afce7d552551}, ! Handle
  Component Data 1,                       ! Name
  {e10ec887-97ff-4b33-99b5-60ba9815b799}, ! UUID
  {35ef6f8e-9dab-413f-b2c6-a07efc273399}, ! Version UUID
  1366307483,                             ! Creation Timestamp
  1366307483,                             ! Version Timestamp
  {7aeaa56b-1eba-4ae7-b331-5bb955465a07}; ! Name of Object 1

