
OS:Version,
  {7d4fef00-8dac-4674-8280-66ab08a160f6}, ! Handle
  0.9.3;                                  ! Version Identifier

OS:SizingPeriod:DesignDay,
  {a1d130ac-77a7-48da-9704-55419c40920b}, ! Handle
  Mount Clemens Selfridge Fld Ann Clg 1% Condns DB=>MWB, ! Name
  30.8,                                   ! Maximum Dry-Bulb Temperature {C}
  11,                                     ! Daily Dry-Bulb Temperature Range {deltaC}
  22.6,                                   ! Humidity Indicating Conditions at Maximum Dry-Bulb {BasedOnField A3}
  99217,                                  ! Barometric Pressure {Pa}
  4.4,                                    ! Wind Speed {m/s}
  160,                                    ! Wind Direction {deg}
  0,                                      ! Sky Clearness
  0,                                      ! Rain Indicator
  0,                                      ! Snow Indicator
  21,                                     ! Day of Month
  7,                                      ! Month
  SummerDesignDay,                        ! Day Type
  0,                                      ! Daylight Saving Time Indicator
  Wetbulb,                                ! Humidity Indicating Type
  ,                                       ! Humidity Indicating Day Schedule Name
  DefaultMultipliers,                     ! Dry-Bulb Temperature Range Modifier Type
  ,                                       ! Dry-Bulb Temperature Range Modifier Schedule Name
  ASHRAETau,                              ! Solar Model Indicator
  ,                                       ! Beam Solar Day Schedule Name
  ,                                       ! Diffuse Solar Day Schedule Name
  0.482,                                  ! ASHRAE Taub {dimensionless}
  1.934;                                  ! ASHRAE Taud {dimensionless}

OS:ComponentData,
  {4d160d14-3467-4a0a-bed2-0495b519bc70}, ! Handle
  Component Data 1,                       ! Name
  {e2f8be3a-e7af-4ca5-a978-9fc50fe5e194}, ! UUID
  {1401c5bd-e987-4f28-9d27-5fa586d49b8f}, ! Version UUID
  1366308068,                             ! Creation Timestamp
  1366308068,                             ! Version Timestamp
  {a1d130ac-77a7-48da-9704-55419c40920b}; ! Name of Object 1

