
OS:Version,
  {bc6cbc88-a4d9-47f6-a3c6-09e8198835b1}, ! Handle
  0.9.3;                                  ! Version Identifier

OS:SizingPeriod:DesignDay,
  {e45cc374-9eea-4f47-8751-5657bd40b371}, ! Handle
  Rogers  Awos Ann Clg 2% Condns Enth=>MDB, ! Name
  29.6,                                   ! Maximum Dry-Bulb Temperature {C}
  9.9,                                    ! Daily Dry-Bulb Temperature Range {deltaC}
  72300,                                  ! Humidity Indicating Conditions at Maximum Dry-Bulb {BasedOnField A3}
  96438,                                  ! Barometric Pressure {Pa}
  3.7,                                    ! Wind Speed {m/s}
  240,                                    ! Wind Direction {deg}
  0,                                      ! Sky Clearness
  0,                                      ! Rain Indicator
  0,                                      ! Snow Indicator
  21,                                     ! Day of Month
  7,                                      ! Month
  SummerDesignDay,                        ! Day Type
  0,                                      ! Daylight Saving Time Indicator
  Enthalpy,                               ! Humidity Indicating Type
  ,                                       ! Humidity Indicating Day Schedule Name
  DefaultMultipliers,                     ! Dry-Bulb Temperature Range Modifier Type
  ,                                       ! Dry-Bulb Temperature Range Modifier Schedule Name
  ASHRAETau,                              ! Solar Model Indicator
  ,                                       ! Beam Solar Day Schedule Name
  ,                                       ! Diffuse Solar Day Schedule Name
  0.453,                                  ! ASHRAE Taub {dimensionless}
  2.083;                                  ! ASHRAE Taud {dimensionless}

OS:ComponentData,
  {922636fe-7162-4c73-b7c9-efd015d54c89}, ! Handle
  Component Data 1,                       ! Name
  {c522f16a-01f3-4850-aff9-c4fe92bf9754}, ! UUID
  {28fcddd0-f1a5-4977-8975-8fb3d12395d6}, ! Version UUID
  1366306244,                             ! Creation Timestamp
  1366306244,                             ! Version Timestamp
  {e45cc374-9eea-4f47-8751-5657bd40b371}; ! Name of Object 1

