
OS:Version,
  {06965f19-4400-42a1-9c45-97a7844709a9}, ! Handle
  0.9.3;                                  ! Version Identifier

OS:SizingPeriod:DesignDay,
  {97864f6a-fba5-4e3d-9375-01f8c758fcbf}, ! Handle
  Sandberg Ann Clg 2% Condns DB=>MWB,     ! Name
  30.3,                                   ! Maximum Dry-Bulb Temperature {C}
  11.4,                                   ! Daily Dry-Bulb Temperature Range {deltaC}
  15.1,                                   ! Humidity Indicating Conditions at Maximum Dry-Bulb {BasedOnField A3}
  85840,                                  ! Barometric Pressure {Pa}
  5.1,                                    ! Wind Speed {m/s}
  170,                                    ! Wind Direction {deg}
  0,                                      ! Sky Clearness
  0,                                      ! Rain Indicator
  0,                                      ! Snow Indicator
  21,                                     ! Day of Month
  8,                                      ! Month
  SummerDesignDay,                        ! Day Type
  0,                                      ! Daylight Saving Time Indicator
  Wetbulb,                                ! Humidity Indicating Type
  ,                                       ! Humidity Indicating Day Schedule Name
  DefaultMultipliers,                     ! Dry-Bulb Temperature Range Modifier Type
  ,                                       ! Dry-Bulb Temperature Range Modifier Schedule Name
  ASHRAETau,                              ! Solar Model Indicator
  ,                                       ! Beam Solar Day Schedule Name
  ,                                       ! Diffuse Solar Day Schedule Name
  0.351,                                  ! ASHRAE Taub {dimensionless}
  2.367;                                  ! ASHRAE Taud {dimensionless}

OS:ComponentData,
  {66332f33-31db-409d-95a3-adabd10a18c3}, ! Handle
  Component Data 1,                       ! Name
  {a0c78402-b7ab-44f2-a14a-894fa6abecb9}, ! UUID
  {deab2777-d62f-4c55-8ffb-5940c7f3f71e}, ! Version UUID
  1366306604,                             ! Creation Timestamp
  1366306604,                             ! Version Timestamp
  {97864f6a-fba5-4e3d-9375-01f8c758fcbf}; ! Name of Object 1

