
OS:Version,
  {2e2bfe10-2829-42ff-900e-f5885697c592}, ! Handle
  0.9.3;                                  ! Version Identifier

OS:SizingPeriod:DesignDay,
  {f8b168fc-fbde-4d1a-9107-d381071edb5b}, ! Handle
  Montpelier Ap Ann Htg 99.6% Condns DB,  ! Name
  -23.7,                                  ! Maximum Dry-Bulb Temperature {C}
  0,                                      ! Daily Dry-Bulb Temperature Range {deltaC}
  -23.7,                                  ! Humidity Indicating Conditions at Maximum Dry-Bulb {BasedOnField A3}
  97272,                                  ! Barometric Pressure {Pa}
  2,                                      ! Wind Speed {m/s}
  320,                                    ! Wind Direction {deg}
  0,                                      ! Sky Clearness
  0,                                      ! Rain Indicator
  0,                                      ! Snow Indicator
  21,                                     ! Day of Month
  1,                                      ! Month
  WinterDesignDay,                        ! Day Type
  0,                                      ! Daylight Saving Time Indicator
  Wetbulb,                                ! Humidity Indicating Type
  ,                                       ! Humidity Indicating Day Schedule Name
  DefaultMultipliers,                     ! Dry-Bulb Temperature Range Modifier Type
  ,                                       ! Dry-Bulb Temperature Range Modifier Schedule Name
  ASHRAEClearSky;                         ! Solar Model Indicator

OS:ComponentData,
  {1d6eb029-9c66-4f13-9d0f-9050988de916}, ! Handle
  Component Data 1,                       ! Name
  {c935efea-acb2-481d-a4b8-acc115ec29a5}, ! UUID
  {2d393db5-a0c1-4b2b-af95-ea632d930390}, ! Version UUID
  1366311249,                             ! Creation Timestamp
  1366311249,                             ! Version Timestamp
  {f8b168fc-fbde-4d1a-9107-d381071edb5b}; ! Name of Object 1

