
OS:Version,
  {88965ba5-e03a-4f54-945d-d2dfc7f60474}, ! Handle
  0.9.3;                                  ! Version Identifier

OS:SizingPeriod:DesignDay,
  {ba535ce5-f284-471a-a898-629f3303ad3a}, ! Handle
  Manhattan Rgnl Ann Htg Wind 99.6% Condns WS=>MCDB, ! Name
  9.2,                                    ! Maximum Dry-Bulb Temperature {C}
  0,                                      ! Daily Dry-Bulb Temperature Range {deltaC}
  9.2,                                    ! Humidity Indicating Conditions at Maximum Dry-Bulb {BasedOnField A3}
  97423,                                  ! Barometric Pressure {Pa}
  10.5,                                   ! Wind Speed {m/s}
  30,                                     ! Wind Direction {deg}
  0,                                      ! Sky Clearness
  0,                                      ! Rain Indicator
  0,                                      ! Snow Indicator
  21,                                     ! Day of Month
  1,                                      ! Month
  WinterDesignDay,                        ! Day Type
  0,                                      ! Daylight Saving Time Indicator
  Wetbulb,                                ! Humidity Indicating Type
  ,                                       ! Humidity Indicating Day Schedule Name
  DefaultMultipliers,                     ! Dry-Bulb Temperature Range Modifier Type
  ,                                       ! Dry-Bulb Temperature Range Modifier Schedule Name
  ASHRAEClearSky;                         ! Solar Model Indicator

OS:ComponentData,
  {d8089753-6e1a-486a-a3bf-67ee0aaf84e1}, ! Handle
  Component Data 1,                       ! Name
  {ebddab97-4edd-4fb7-af15-1b6364cd184b}, ! UUID
  {fee74a53-6119-442a-8c20-dbde9b1845a4}, ! Version UUID
  1366307558,                             ! Creation Timestamp
  1366307558,                             ! Version Timestamp
  {ba535ce5-f284-471a-a898-629f3303ad3a}; ! Name of Object 1

