
OS:Version,
  {bd4773cf-fd6f-4df1-974e-0721af8d601c}, ! Handle
  0.9.3;                                  ! Version Identifier

OS:SizingPeriod:DesignDay,
  {cdccaaac-7de5-4fba-97b0-e891ddfd8ec5}, ! Handle
  Pocatello Ann Hum_n 99.6% Condns DP=>MCDB, ! Name
  -20.3,                                  ! Maximum Dry-Bulb Temperature {C}
  0,                                      ! Daily Dry-Bulb Temperature Range {deltaC}
  -23.8,                                  ! Humidity Indicating Conditions at Maximum Dry-Bulb {BasedOnField A3}
  85966,                                  ! Barometric Pressure {Pa}
  2.1,                                    ! Wind Speed {m/s}
  30,                                     ! Wind Direction {deg}
  0,                                      ! Sky Clearness
  0,                                      ! Rain Indicator
  0,                                      ! Snow Indicator
  21,                                     ! Day of Month
  12,                                     ! Month
  WinterDesignDay,                        ! Day Type
  0,                                      ! Daylight Saving Time Indicator
  Dewpoint,                               ! Humidity Indicating Type
  ,                                       ! Humidity Indicating Day Schedule Name
  DefaultMultipliers,                     ! Dry-Bulb Temperature Range Modifier Type
  ,                                       ! Dry-Bulb Temperature Range Modifier Schedule Name
  ASHRAEClearSky;                         ! Solar Model Indicator

OS:ComponentData,
  {de5f9a46-a124-499a-973a-7808a2d59068}, ! Handle
  Component Data 1,                       ! Name
  {91e4985e-b03e-4dc5-b1ee-bf201eac28f5}, ! UUID
  {cf150499-0a9e-4f05-827e-e06d5e3adf95}, ! Version UUID
  1366307303,                             ! Creation Timestamp
  1366307303,                             ! Version Timestamp
  {cdccaaac-7de5-4fba-97b0-e891ddfd8ec5}; ! Name of Object 1

