
OS:Version,
  {3620f569-38a9-4660-a6c2-d8cc4a06e660}, ! Handle
  0.9.3;                                  ! Version Identifier

OS:SizingPeriod:DesignDay,
  {dec59252-4939-4f71-be46-57ea55161e43}, ! Handle
  Montague Siskiyou County Ap Ann Clg 2% Condns DP=>MDB, ! Name
  22.5,                                   ! Maximum Dry-Bulb Temperature {C}
  19.4,                                   ! Daily Dry-Bulb Temperature Range {deltaC}
  11.3,                                   ! Humidity Indicating Conditions at Maximum Dry-Bulb {BasedOnField A3}
  92043,                                  ! Barometric Pressure {Pa}
  3.2,                                    ! Wind Speed {m/s}
  190,                                    ! Wind Direction {deg}
  0,                                      ! Sky Clearness
  0,                                      ! Rain Indicator
  0,                                      ! Snow Indicator
  21,                                     ! Day of Month
  7,                                      ! Month
  SummerDesignDay,                        ! Day Type
  0,                                      ! Daylight Saving Time Indicator
  Dewpoint,                               ! Humidity Indicating Type
  ,                                       ! Humidity Indicating Day Schedule Name
  DefaultMultipliers,                     ! Dry-Bulb Temperature Range Modifier Type
  ,                                       ! Dry-Bulb Temperature Range Modifier Schedule Name
  ASHRAETau,                              ! Solar Model Indicator
  ,                                       ! Beam Solar Day Schedule Name
  ,                                       ! Diffuse Solar Day Schedule Name
  0.349,                                  ! ASHRAE Taub {dimensionless}
  2.55;                                   ! ASHRAE Taud {dimensionless}

