
OS:Version,
  {4ea7043b-5ae4-4b0a-870c-7493f74fa3e8}, ! Handle
  0.9.3;                                  ! Version Identifier

OS:SizingPeriod:DesignDay,
  {d815f951-1694-46a9-bc91-de5960624108}, ! Handle
  Philadelphia International Ap Ann Htg 99% Condns DB, ! Name
  -8.4,                                   ! Maximum Dry-Bulb Temperature {C}
  0,                                      ! Daily Dry-Bulb Temperature Range {deltaC}
  -8.4,                                   ! Humidity Indicating Conditions at Maximum Dry-Bulb {BasedOnField A3}
  101301,                                 ! Barometric Pressure {Pa}
  5.2,                                    ! Wind Speed {m/s}
  290,                                    ! Wind Direction {deg}
  0,                                      ! Sky Clearness
  0,                                      ! Rain Indicator
  0,                                      ! Snow Indicator
  21,                                     ! Day of Month
  1,                                      ! Month
  WinterDesignDay,                        ! Day Type
  0,                                      ! Daylight Saving Time Indicator
  Wetbulb,                                ! Humidity Indicating Type
  ,                                       ! Humidity Indicating Day Schedule Name
  DefaultMultipliers,                     ! Dry-Bulb Temperature Range Modifier Type
  ,                                       ! Dry-Bulb Temperature Range Modifier Schedule Name
  ASHRAEClearSky;                         ! Solar Model Indicator

OS:ComponentData,
  {c2709b8f-f167-4089-830b-ed0292f9697e}, ! Handle
  Component Data 1,                       ! Name
  {16da34b5-4d78-41a3-8a04-23785127a6f1}, ! UUID
  {43e4ded2-e5f2-47b4-8e53-278f26b2cb0c}, ! Version UUID
  1366310222,                             ! Creation Timestamp
  1366310222,                             ! Version Timestamp
  {d815f951-1694-46a9-bc91-de5960624108}; ! Name of Object 1

