
OS:Version,
  {54f3afc2-2145-4a91-b107-2a1d1aa35a54}, ! Handle
  0.9.3;                                  ! Version Identifier

OS:SizingPeriod:DesignDay,
  {6df4e059-ae59-4e3c-875f-4da36418bcfb}, ! Handle
  Presque Isle Municip Ann Clg .4% Condns DB=>MWB, ! Name
  29.3,                                   ! Maximum Dry-Bulb Temperature {C}
  11.7,                                   ! Daily Dry-Bulb Temperature Range {deltaC}
  20,                                     ! Humidity Indicating Conditions at Maximum Dry-Bulb {BasedOnField A3}
  99382,                                  ! Barometric Pressure {Pa}
  4.5,                                    ! Wind Speed {m/s}
  270,                                    ! Wind Direction {deg}
  0,                                      ! Sky Clearness
  0,                                      ! Rain Indicator
  0,                                      ! Snow Indicator
  21,                                     ! Day of Month
  7,                                      ! Month
  SummerDesignDay,                        ! Day Type
  0,                                      ! Daylight Saving Time Indicator
  Wetbulb,                                ! Humidity Indicating Type
  ,                                       ! Humidity Indicating Day Schedule Name
  DefaultMultipliers,                     ! Dry-Bulb Temperature Range Modifier Type
  ,                                       ! Dry-Bulb Temperature Range Modifier Schedule Name
  ASHRAETau,                              ! Solar Model Indicator
  ,                                       ! Beam Solar Day Schedule Name
  ,                                       ! Diffuse Solar Day Schedule Name
  0.432,                                  ! ASHRAE Taub {dimensionless}
  2.1;                                    ! ASHRAE Taud {dimensionless}

OS:ComponentData,
  {3465dc9b-b584-4e99-8a74-3f11f0c8a43d}, ! Handle
  Component Data 1,                       ! Name
  {f121c658-1526-46e4-915b-626f91e138f6}, ! UUID
  {c5d4c1ba-a02f-409f-bd00-3db4b235f0ab}, ! Version UUID
  1366307918,                             ! Creation Timestamp
  1366307918,                             ! Version Timestamp
  {6df4e059-ae59-4e3c-875f-4da36418bcfb}; ! Name of Object 1

