
OS:Version,
  {bfe777eb-812a-4019-8216-f4118f6a27ad}, ! Handle
  0.9.3;                                  ! Version Identifier

OS:SizingPeriod:DesignDay,
  {3229d454-3bcb-4511-8f89-043e733a6144}, ! Handle
  YAKUTAT Ann Htg Wind 99.6% Condns WS=>MCDB, ! Name
  4.2,                                    ! Maximum Dry-Bulb Temperature {C}
  0,                                      ! Daily Dry-Bulb Temperature Range {deltaC}
  4.2,                                    ! Humidity Indicating Conditions at Maximum Dry-Bulb {BasedOnField A3}
  101217,                                 ! Barometric Pressure {Pa}
  12.4,                                   ! Wind Speed {m/s}
  100,                                    ! Wind Direction {deg}
  0,                                      ! Sky Clearness
  0,                                      ! Rain Indicator
  0,                                      ! Snow Indicator
  21,                                     ! Day of Month
  1,                                      ! Month
  WinterDesignDay,                        ! Day Type
  0,                                      ! Daylight Saving Time Indicator
  Wetbulb,                                ! Humidity Indicating Type
  ,                                       ! Humidity Indicating Day Schedule Name
  DefaultMultipliers,                     ! Dry-Bulb Temperature Range Modifier Type
  ,                                       ! Dry-Bulb Temperature Range Modifier Schedule Name
  ASHRAEClearSky;                         ! Solar Model Indicator

OS:ComponentData,
  {a8b2d98b-d419-4551-a8d9-8e5b8e34a7d3}, ! Handle
  Component Data 1,                       ! Name
  {a104b185-9778-40d3-9ba5-45d7a8bf74d3}, ! UUID
  {8ff676b3-9cdd-49b9-9302-c41be6594c9b}, ! Version UUID
  1366305620,                             ! Creation Timestamp
  1366305620,                             ! Version Timestamp
  {3229d454-3bcb-4511-8f89-043e733a6144}; ! Name of Object 1

