
OS:Version,
  {ef6e7f2c-903c-4621-9d62-33a7abc08802}, ! Handle
  0.9.3;                                  ! Version Identifier

OS:SizingPeriod:DesignDay,
  {a32049b7-6a1f-41e5-bf6a-1109f6e8703c}, ! Handle
  WICHITA Ann Clg .4% Condns DP=>MDB,     ! Name
  28.5,                                   ! Maximum Dry-Bulb Temperature {C}
  12.1,                                   ! Daily Dry-Bulb Temperature Range {deltaC}
  23.4,                                   ! Humidity Indicating Conditions at Maximum Dry-Bulb {BasedOnField A3}
  96519,                                  ! Barometric Pressure {Pa}
  7.1,                                    ! Wind Speed {m/s}
  190,                                    ! Wind Direction {deg}
  0,                                      ! Sky Clearness
  0,                                      ! Rain Indicator
  0,                                      ! Snow Indicator
  21,                                     ! Day of Month
  7,                                      ! Month
  SummerDesignDay,                        ! Day Type
  0,                                      ! Daylight Saving Time Indicator
  Dewpoint,                               ! Humidity Indicating Type
  ,                                       ! Humidity Indicating Day Schedule Name
  DefaultMultipliers,                     ! Dry-Bulb Temperature Range Modifier Type
  ,                                       ! Dry-Bulb Temperature Range Modifier Schedule Name
  ASHRAETau,                              ! Solar Model Indicator
  ,                                       ! Beam Solar Day Schedule Name
  ,                                       ! Diffuse Solar Day Schedule Name
  0.419,                                  ! ASHRAE Taub {dimensionless}
  2.207;                                  ! ASHRAE Taud {dimensionless}

OS:ComponentData,
  {1b8b0abc-dd82-447b-8b96-d71c51c58bd7}, ! Handle
  Component Data 1,                       ! Name
  {51f9de9c-52e9-4b0b-9b69-1091c2253e26}, ! UUID
  {f94e3290-413f-485d-bc2e-f471d6f72b76}, ! Version UUID
  1366307608,                             ! Creation Timestamp
  1366307608,                             ! Version Timestamp
  {a32049b7-6a1f-41e5-bf6a-1109f6e8703c}; ! Name of Object 1

