
OS:Version,
  {6702d270-08ac-4c65-a5a7-e011135c6748}, ! Handle
  0.9.3;                                  ! Version Identifier

OS:SizingPeriod:DesignDay,
  {242161bc-9a1d-452d-83da-3cdc8966f7a8}, ! Handle
  Miami Intl Ap Ann Clg 2% Condns DP=>MDB, ! Name
  28.4,                                   ! Maximum Dry-Bulb Temperature {C}
  6.7,                                    ! Daily Dry-Bulb Temperature Range {deltaC}
  25,                                     ! Humidity Indicating Conditions at Maximum Dry-Bulb {BasedOnField A3}
  101193,                                 ! Barometric Pressure {Pa}
  4.5,                                    ! Wind Speed {m/s}
  140,                                    ! Wind Direction {deg}
  0,                                      ! Sky Clearness
  0,                                      ! Rain Indicator
  0,                                      ! Snow Indicator
  21,                                     ! Day of Month
  7,                                      ! Month
  SummerDesignDay,                        ! Day Type
  0,                                      ! Daylight Saving Time Indicator
  Dewpoint,                               ! Humidity Indicating Type
  ,                                       ! Humidity Indicating Day Schedule Name
  DefaultMultipliers,                     ! Dry-Bulb Temperature Range Modifier Type
  ,                                       ! Dry-Bulb Temperature Range Modifier Schedule Name
  ASHRAETau,                              ! Solar Model Indicator
  ,                                       ! Beam Solar Day Schedule Name
  ,                                       ! Diffuse Solar Day Schedule Name
  0.528,                                  ! ASHRAE Taub {dimensionless}
  1.905;                                  ! ASHRAE Taud {dimensionless}

OS:ComponentData,
  {66999911-d4b4-4a81-95cf-f4bd1468950e}, ! Handle
  Component Data 1,                       ! Name
  {8859e3f2-512d-44c7-8e73-bdb13fa092e0}, ! UUID
  {ac75e8d4-4596-43ad-90b0-5eb253498db2}, ! Version UUID
  1366306867,                             ! Creation Timestamp
  1366306867,                             ! Version Timestamp
  {242161bc-9a1d-452d-83da-3cdc8966f7a8}; ! Name of Object 1

