
OS:Version,
  {5de6a6b9-4411-46ee-9152-ac2784f0bd67}, ! Handle
  0.9.3;                                  ! Version Identifier

OS:SizingPeriod:DesignDay,
  {851ea25e-5509-4a13-87c0-82c934c08a30}, ! Handle
  White Plains Westchester Co A Ann Clg 1% Condns DB=>MWB, ! Name
  30.3,                                   ! Maximum Dry-Bulb Temperature {C}
  9.6,                                    ! Daily Dry-Bulb Temperature Range {deltaC}
  22.5,                                   ! Humidity Indicating Conditions at Maximum Dry-Bulb {BasedOnField A3}
  99868,                                  ! Barometric Pressure {Pa}
  3.8,                                    ! Wind Speed {m/s}
  270,                                    ! Wind Direction {deg}
  0,                                      ! Sky Clearness
  0,                                      ! Rain Indicator
  0,                                      ! Snow Indicator
  21,                                     ! Day of Month
  7,                                      ! Month
  SummerDesignDay,                        ! Day Type
  0,                                      ! Daylight Saving Time Indicator
  Wetbulb,                                ! Humidity Indicating Type
  ,                                       ! Humidity Indicating Day Schedule Name
  DefaultMultipliers,                     ! Dry-Bulb Temperature Range Modifier Type
  ,                                       ! Dry-Bulb Temperature Range Modifier Schedule Name
  ASHRAETau,                              ! Solar Model Indicator
  ,                                       ! Beam Solar Day Schedule Name
  ,                                       ! Diffuse Solar Day Schedule Name
  0.506,                                  ! ASHRAE Taub {dimensionless}
  1.88;                                   ! ASHRAE Taud {dimensionless}

OS:ComponentData,
  {4b7cb6ab-a5dc-4a84-aa08-8d216df14ae8}, ! Handle
  Component Data 1,                       ! Name
  {d9e38fcb-0d83-4bdb-aeaf-36fe040b3a12}, ! UUID
  {08ae464f-9c92-44b6-9b9c-505a0047e4bf}, ! Version UUID
  1366309755,                             ! Creation Timestamp
  1366309755,                             ! Version Timestamp
  {851ea25e-5509-4a13-87c0-82c934c08a30}; ! Name of Object 1

