
OS:Version,
  {e391aba2-494b-4f6e-9541-1ecc9a8a4238}, ! Handle
  0.9.3;                                  ! Version Identifier

OS:SizingPeriod:DesignDay,
  {03a0b2e2-09c3-407b-be55-a96ef9261958}, ! Handle
  Marietta Dobbins Afb Ann Clg 2% Condns DB=>MWB, ! Name
  31.7,                                   ! Maximum Dry-Bulb Temperature {C}
  9.6,                                    ! Daily Dry-Bulb Temperature Range {deltaC}
  22.9,                                   ! Humidity Indicating Conditions at Maximum Dry-Bulb {BasedOnField A3}
  97423,                                  ! Barometric Pressure {Pa}
  2.7,                                    ! Wind Speed {m/s}
  300,                                    ! Wind Direction {deg}
  0,                                      ! Sky Clearness
  0,                                      ! Rain Indicator
  0,                                      ! Snow Indicator
  21,                                     ! Day of Month
  7,                                      ! Month
  SummerDesignDay,                        ! Day Type
  0,                                      ! Daylight Saving Time Indicator
  Wetbulb,                                ! Humidity Indicating Type
  ,                                       ! Humidity Indicating Day Schedule Name
  DefaultMultipliers,                     ! Dry-Bulb Temperature Range Modifier Type
  ,                                       ! Dry-Bulb Temperature Range Modifier Schedule Name
  ASHRAETau,                              ! Solar Model Indicator
  ,                                       ! Beam Solar Day Schedule Name
  ,                                       ! Diffuse Solar Day Schedule Name
  0.558,                                  ! ASHRAE Taub {dimensionless}
  1.77;                                   ! ASHRAE Taud {dimensionless}

OS:ComponentData,
  {89ed8c1e-6662-4ff6-9df9-eac0a9066552}, ! Handle
  Component Data 1,                       ! Name
  {57b0d16b-53e9-425c-8298-4f09121137b3}, ! UUID
  {6ac62acf-7827-4fa8-ae98-c8629bc8a554}, ! Version UUID
  1366307031,                             ! Creation Timestamp
  1366307031,                             ! Version Timestamp
  {03a0b2e2-09c3-407b-be55-a96ef9261958}; ! Name of Object 1

