
OS:Version,
  {64fbeb2e-6694-45a7-9fc4-aa3016744b47}, ! Handle
  0.9.3;                                  ! Version Identifier

OS:SizingPeriod:DesignDay,
  {01822979-0b29-4e69-94b9-63cad283816b}, ! Handle
  Morris Muni  Awos Ann Clg 2% Condns DB=>MWB, ! Name
  27.8,                                   ! Maximum Dry-Bulb Temperature {C}
  11.1,                                   ! Daily Dry-Bulb Temperature Range {deltaC}
  21.7,                                   ! Humidity Indicating Conditions at Maximum Dry-Bulb {BasedOnField A3}
  97260,                                  ! Barometric Pressure {Pa}
  5.9,                                    ! Wind Speed {m/s}
  160,                                    ! Wind Direction {deg}
  0,                                      ! Sky Clearness
  0,                                      ! Rain Indicator
  0,                                      ! Snow Indicator
  21,                                     ! Day of Month
  7,                                      ! Month
  SummerDesignDay,                        ! Day Type
  0,                                      ! Daylight Saving Time Indicator
  Wetbulb,                                ! Humidity Indicating Type
  ,                                       ! Humidity Indicating Day Schedule Name
  DefaultMultipliers,                     ! Dry-Bulb Temperature Range Modifier Type
  ,                                       ! Dry-Bulb Temperature Range Modifier Schedule Name
  ASHRAETau,                              ! Solar Model Indicator
  ,                                       ! Beam Solar Day Schedule Name
  ,                                       ! Diffuse Solar Day Schedule Name
  0.394,                                  ! ASHRAE Taub {dimensionless}
  2.261;                                  ! ASHRAE Taud {dimensionless}

OS:ComponentData,
  {ad908e6e-2d62-4bcb-870c-4006fa8a1620}, ! Handle
  Component Data 1,                       ! Name
  {a4312621-2603-4fb3-ac15-cbe488d3923e}, ! UUID
  {e65e5e37-df93-4bf3-93ff-19d20617143a}, ! Version UUID
  1366308336,                             ! Creation Timestamp
  1366308336,                             ! Version Timestamp
  {01822979-0b29-4e69-94b9-63cad283816b}; ! Name of Object 1

