
OS:Version,
  {8f2b4d23-d181-405a-be7f-5a779991a842}, ! Handle
  0.9.3;                                  ! Version Identifier

OS:SizingPeriod:DesignDay,
  {8dc3edec-9a24-4deb-938c-00f770f80a27}, ! Handle
  Rock Springs Arpt  Green Rive Ann Hum_n 99% Condns DP=>MCDB, ! Name
  -15.8,                                  ! Maximum Dry-Bulb Temperature {C}
  0,                                      ! Daily Dry-Bulb Temperature Range {deltaC}
  -21.9,                                  ! Humidity Indicating Conditions at Maximum Dry-Bulb {BasedOnField A3}
  89875,                                  ! Barometric Pressure {Pa}
  3.6,                                    ! Wind Speed {m/s}
  70,                                     ! Wind Direction {deg}
  0,                                      ! Sky Clearness
  0,                                      ! Rain Indicator
  0,                                      ! Snow Indicator
  21,                                     ! Day of Month
  12,                                     ! Month
  WinterDesignDay,                        ! Day Type
  0,                                      ! Daylight Saving Time Indicator
  Dewpoint,                               ! Humidity Indicating Type
  ,                                       ! Humidity Indicating Day Schedule Name
  DefaultMultipliers,                     ! Dry-Bulb Temperature Range Modifier Type
  ,                                       ! Dry-Bulb Temperature Range Modifier Schedule Name
  ASHRAEClearSky;                         ! Solar Model Indicator

OS:ComponentData,
  {cc54c3f7-45de-47e9-9554-d5b4137c7a28}, ! Handle
  Component Data 1,                       ! Name
  {f2b1bae2-ae92-4805-9eb4-c59964ddb482}, ! UUID
  {d8037f55-f7bc-4f51-a12e-9ad8c5d49836}, ! Version UUID
  1366311738,                             ! Creation Timestamp
  1366311738,                             ! Version Timestamp
  {8dc3edec-9a24-4deb-938c-00f770f80a27}; ! Name of Object 1

