
OS:Version,
  {fd680a12-710e-4ce0-a397-346d15d62e28}, ! Handle
  0.9.3;                                  ! Version Identifier

OS:SizingPeriod:DesignDay,
  {892e298e-efb3-428d-bf87-1d5682037beb}, ! Handle
  Mobile Regional Ap Ann Clg 2% Condns Enth=>MDB, ! Name
  30.2,                                   ! Maximum Dry-Bulb Temperature {C}
  9.4,                                    ! Daily Dry-Bulb Temperature Range {deltaC}
  79000,                                  ! Humidity Indicating Conditions at Maximum Dry-Bulb {BasedOnField A3}
  100535,                                 ! Barometric Pressure {Pa}
  3.5,                                    ! Wind Speed {m/s}
  350,                                    ! Wind Direction {deg}
  0,                                      ! Sky Clearness
  0,                                      ! Rain Indicator
  0,                                      ! Snow Indicator
  21,                                     ! Day of Month
  7,                                      ! Month
  SummerDesignDay,                        ! Day Type
  0,                                      ! Daylight Saving Time Indicator
  Enthalpy,                               ! Humidity Indicating Type
  ,                                       ! Humidity Indicating Day Schedule Name
  DefaultMultipliers,                     ! Dry-Bulb Temperature Range Modifier Type
  ,                                       ! Dry-Bulb Temperature Range Modifier Schedule Name
  ASHRAETau,                              ! Solar Model Indicator
  ,                                       ! Beam Solar Day Schedule Name
  ,                                       ! Diffuse Solar Day Schedule Name
  0.538,                                  ! ASHRAE Taub {dimensionless}
  1.867;                                  ! ASHRAE Taud {dimensionless}

OS:ComponentData,
  {8f5af064-b67d-42d9-94fb-d831a285da5b}, ! Handle
  Component Data 1,                       ! Name
  {3ab23ec4-8daf-42fb-bae1-9245db414376}, ! UUID
  {a1ee4899-6b1b-46bb-8ec2-fa84daed6893}, ! Version UUID
  1366305811,                             ! Creation Timestamp
  1366305811,                             ! Version Timestamp
  {892e298e-efb3-428d-bf87-1d5682037beb}; ! Name of Object 1

