
OS:Version,
  {33e09bec-3bf0-4229-a408-e95a0c4bfaa8}, ! Handle
  0.9.3;                                  ! Version Identifier

OS:SizingPeriod:DesignDay,
  {3d78b0fe-86df-4ff6-95bf-f9b33222cf22}, ! Handle
  Ukiah Municipal Ap Ann Htg Wind 99% Condns WS=>MCDB, ! Name
  11.4,                                   ! Maximum Dry-Bulb Temperature {C}
  0,                                      ! Daily Dry-Bulb Temperature Range {deltaC}
  11.4,                                   ! Humidity Indicating Conditions at Maximum Dry-Bulb {BasedOnField A3}
  99075,                                  ! Barometric Pressure {Pa}
  7.2,                                    ! Wind Speed {m/s}
  290,                                    ! Wind Direction {deg}
  0,                                      ! Sky Clearness
  0,                                      ! Rain Indicator
  0,                                      ! Snow Indicator
  21,                                     ! Day of Month
  12,                                     ! Month
  WinterDesignDay,                        ! Day Type
  0,                                      ! Daylight Saving Time Indicator
  Wetbulb,                                ! Humidity Indicating Type
  ,                                       ! Humidity Indicating Day Schedule Name
  DefaultMultipliers,                     ! Dry-Bulb Temperature Range Modifier Type
  ,                                       ! Dry-Bulb Temperature Range Modifier Schedule Name
  ASHRAEClearSky;                         ! Solar Model Indicator

OS:ComponentData,
  {299be04a-8114-4adc-a7f7-960291574827}, ! Handle
  Component Data 1,                       ! Name
  {15a966ea-d198-444f-8012-5de6ae2eeefb}, ! UUID
  {a796b7a3-1a61-40e9-aab4-1737568f731e}, ! Version UUID
  1366306628,                             ! Creation Timestamp
  1366306628,                             ! Version Timestamp
  {3d78b0fe-86df-4ff6-95bf-f9b33222cf22}; ! Name of Object 1

