
OS:Version,
  {eb1bddef-e908-404b-9821-7da98e476a78}, ! Handle
  0.9.3;                                  ! Version Identifier

OS:SizingPeriod:DesignDay,
  {59eba38d-e052-4291-89f7-f0ebec3ae802}, ! Handle
  Porterville  Awos Ann Clg 2% Condns DB=>MWB, ! Name
  36.1,                                   ! Maximum Dry-Bulb Temperature {C}
  17.1,                                   ! Daily Dry-Bulb Temperature Range {deltaC}
  20,                                     ! Humidity Indicating Conditions at Maximum Dry-Bulb {BasedOnField A3}
  99714,                                  ! Barometric Pressure {Pa}
  4,                                      ! Wind Speed {m/s}
  320,                                    ! Wind Direction {deg}
  0,                                      ! Sky Clearness
  0,                                      ! Rain Indicator
  0,                                      ! Snow Indicator
  21,                                     ! Day of Month
  7,                                      ! Month
  SummerDesignDay,                        ! Day Type
  0,                                      ! Daylight Saving Time Indicator
  Wetbulb,                                ! Humidity Indicating Type
  ,                                       ! Humidity Indicating Day Schedule Name
  DefaultMultipliers,                     ! Dry-Bulb Temperature Range Modifier Type
  ,                                       ! Dry-Bulb Temperature Range Modifier Schedule Name
  ASHRAETau,                              ! Solar Model Indicator
  ,                                       ! Beam Solar Day Schedule Name
  ,                                       ! Diffuse Solar Day Schedule Name
  0.458,                                  ! ASHRAE Taub {dimensionless}
  2.053;                                  ! ASHRAE Taud {dimensionless}

