
OS:Version,
  {00280de1-e4a4-44d4-845f-f9c5d26db75a}, ! Handle
  0.9.3;                                  ! Version Identifier

OS:SizingPeriod:DesignDay,
  {0ac2ce73-298b-465f-b14d-5fdf54a58727}, ! Handle
  Middleton Island Aut Ann Htg 99% Condns DB, ! Name
  -5.2,                                   ! Maximum Dry-Bulb Temperature {C}
  0,                                      ! Daily Dry-Bulb Temperature Range {deltaC}
  -5.2,                                   ! Humidity Indicating Conditions at Maximum Dry-Bulb {BasedOnField A3}
  101157,                                 ! Barometric Pressure {Pa}
  7.1,                                    ! Wind Speed {m/s}
  30,                                     ! Wind Direction {deg}
  0,                                      ! Sky Clearness
  0,                                      ! Rain Indicator
  0,                                      ! Snow Indicator
  21,                                     ! Day of Month
  2,                                      ! Month
  WinterDesignDay,                        ! Day Type
  0,                                      ! Daylight Saving Time Indicator
  Wetbulb,                                ! Humidity Indicating Type
  ,                                       ! Humidity Indicating Day Schedule Name
  DefaultMultipliers,                     ! Dry-Bulb Temperature Range Modifier Type
  ,                                       ! Dry-Bulb Temperature Range Modifier Schedule Name
  ASHRAEClearSky;                         ! Solar Model Indicator

OS:ComponentData,
  {1aa89955-d984-4821-818a-3ea806a8e048}, ! Handle
  Component Data 1,                       ! Name
  {787b43e2-44d2-46ca-94ad-d8e6a5544435}, ! UUID
  {d612debb-50a3-4762-9914-b4d6d955ab11}, ! Version UUID
  1366305428,                             ! Creation Timestamp
  1366305428,                             ! Version Timestamp
  {0ac2ce73-298b-465f-b14d-5fdf54a58727}; ! Name of Object 1

