
OS:Version,
  {6f372566-2c64-40c0-8e0b-fb1c2aeb25fe}, ! Handle
  0.9.3;                                  ! Version Identifier

OS:SizingPeriod:DesignDay,
  {62548bd6-7545-4ab4-8395-7cebccdccdd9}, ! Handle
  Melfa Accomack Arpt Ann Clg 2% Condns DP=>MDB, ! Name
  28.1,                                   ! Maximum Dry-Bulb Temperature {C}
  9.6,                                    ! Daily Dry-Bulb Temperature Range {deltaC}
  24.7,                                   ! Humidity Indicating Conditions at Maximum Dry-Bulb {BasedOnField A3}
  101145,                                 ! Barometric Pressure {Pa}
  3.4,                                    ! Wind Speed {m/s}
  240,                                    ! Wind Direction {deg}
  0,                                      ! Sky Clearness
  0,                                      ! Rain Indicator
  0,                                      ! Snow Indicator
  21,                                     ! Day of Month
  7,                                      ! Month
  SummerDesignDay,                        ! Day Type
  0,                                      ! Daylight Saving Time Indicator
  Dewpoint,                               ! Humidity Indicating Type
  ,                                       ! Humidity Indicating Day Schedule Name
  DefaultMultipliers,                     ! Dry-Bulb Temperature Range Modifier Type
  ,                                       ! Dry-Bulb Temperature Range Modifier Schedule Name
  ASHRAETau,                              ! Solar Model Indicator
  ,                                       ! Beam Solar Day Schedule Name
  ,                                       ! Diffuse Solar Day Schedule Name
  0.582,                                  ! ASHRAE Taub {dimensionless}
  1.723;                                  ! ASHRAE Taud {dimensionless}

OS:ComponentData,
  {9a9e5f24-08b6-4906-be71-8066b2e24488}, ! Handle
  Component Data 1,                       ! Name
  {9b078d65-7af3-4ae8-89b4-b9db9f5470cd}, ! UUID
  {8ae724a4-8db9-4629-a7eb-ad8c475f6d91}, ! Version UUID
  1366311112,                             ! Creation Timestamp
  1366311112,                             ! Version Timestamp
  {62548bd6-7545-4ab4-8395-7cebccdccdd9}; ! Name of Object 1

