
OS:Version,
  {ea16bef4-be11-494e-bffb-c8a4a3b8961c}, ! Handle
  0.9.3;                                  ! Version Identifier

OS:SizingPeriod:DesignDay,
  {4c1c6303-c086-4d27-b8bc-76f291a74a7d}, ! Handle
  Safford  Amos Ann Clg .4% Condns WB=>MDB, ! Name
  32,                                     ! Maximum Dry-Bulb Temperature {C}
  15,                                     ! Daily Dry-Bulb Temperature Range {deltaC}
  21.8,                                   ! Humidity Indicating Conditions at Maximum Dry-Bulb {BasedOnField A3}
  90421,                                  ! Barometric Pressure {Pa}
  4.3,                                    ! Wind Speed {m/s}
  300,                                    ! Wind Direction {deg}
  0,                                      ! Sky Clearness
  0,                                      ! Rain Indicator
  0,                                      ! Snow Indicator
  21,                                     ! Day of Month
  7,                                      ! Month
  SummerDesignDay,                        ! Day Type
  0,                                      ! Daylight Saving Time Indicator
  Wetbulb,                                ! Humidity Indicating Type
  ,                                       ! Humidity Indicating Day Schedule Name
  DefaultMultipliers,                     ! Dry-Bulb Temperature Range Modifier Type
  ,                                       ! Dry-Bulb Temperature Range Modifier Schedule Name
  ASHRAETau,                              ! Solar Model Indicator
  ,                                       ! Beam Solar Day Schedule Name
  ,                                       ! Diffuse Solar Day Schedule Name
  0.58,                                   ! ASHRAE Taub {dimensionless}
  1.663;                                  ! ASHRAE Taud {dimensionless}

OS:ComponentData,
  {0365950f-f4b2-49d9-aa77-f74956d973a6}, ! Handle
  Component Data 1,                       ! Name
  {68616206-ac24-4059-a3aa-06014dfa1c93}, ! UUID
  {29db9962-2629-4849-bc74-dc71f3bb67fd}, ! Version UUID
  1366306312,                             ! Creation Timestamp
  1366306312,                             ! Version Timestamp
  {4c1c6303-c086-4d27-b8bc-76f291a74a7d}; ! Name of Object 1

