
OS:Version,
  {cd3e3e9c-1d79-409d-a46b-6bc9d9c80039}, ! Handle
  0.9.3;                                  ! Version Identifier

OS:SizingPeriod:DesignDay,
  {cffa4f7b-0e0c-43a8-bd13-918dbfb7ecdc}, ! Handle
  Topeka Ann Htg Wind 99.6% Condns WS=>MCDB, ! Name
  0,                                      ! Maximum Dry-Bulb Temperature {C}
  0,                                      ! Daily Dry-Bulb Temperature Range {deltaC}
  0,                                      ! Humidity Indicating Conditions at Maximum Dry-Bulb {BasedOnField A3}
  98123,                                  ! Barometric Pressure {Pa}
  12,                                     ! Wind Speed {m/s}
  320,                                    ! Wind Direction {deg}
  0,                                      ! Sky Clearness
  0,                                      ! Rain Indicator
  0,                                      ! Snow Indicator
  21,                                     ! Day of Month
  1,                                      ! Month
  WinterDesignDay,                        ! Day Type
  0,                                      ! Daylight Saving Time Indicator
  Wetbulb,                                ! Humidity Indicating Type
  ,                                       ! Humidity Indicating Day Schedule Name
  DefaultMultipliers,                     ! Dry-Bulb Temperature Range Modifier Type
  ,                                       ! Dry-Bulb Temperature Range Modifier Schedule Name
  ASHRAEClearSky;                         ! Solar Model Indicator

OS:ComponentData,
  {b82500a3-5966-4461-833e-5321d672a3f5}, ! Handle
  Component Data 1,                       ! Name
  {0e0bd6f0-93c8-4108-8c29-8e026dcb26b5}, ! UUID
  {b5691437-ce7c-4389-a561-d3c874a8bdc7}, ! Version UUID
  1366307583,                             ! Creation Timestamp
  1366307583,                             ! Version Timestamp
  {cffa4f7b-0e0c-43a8-bd13-918dbfb7ecdc}; ! Name of Object 1

