
OS:Version,
  {48e51d02-9dc6-49cf-9d4e-25ad256ce3de}, ! Handle
  0.9.3;                                  ! Version Identifier

OS:SizingPeriod:DesignDay,
  {d6fc264f-9201-4095-946c-f1924812a313}, ! Handle
  Rochester Ann Clg .4% Condns DP=>MDB,   ! Name
  27.1,                                   ! Maximum Dry-Bulb Temperature {C}
  10.7,                                   ! Daily Dry-Bulb Temperature Range {deltaC}
  22.5,                                   ! Humidity Indicating Conditions at Maximum Dry-Bulb {BasedOnField A3}
  99311,                                  ! Barometric Pressure {Pa}
  5.2,                                    ! Wind Speed {m/s}
  240,                                    ! Wind Direction {deg}
  0,                                      ! Sky Clearness
  0,                                      ! Rain Indicator
  0,                                      ! Snow Indicator
  21,                                     ! Day of Month
  7,                                      ! Month
  SummerDesignDay,                        ! Day Type
  0,                                      ! Daylight Saving Time Indicator
  Dewpoint,                               ! Humidity Indicating Type
  ,                                       ! Humidity Indicating Day Schedule Name
  DefaultMultipliers,                     ! Dry-Bulb Temperature Range Modifier Type
  ,                                       ! Dry-Bulb Temperature Range Modifier Schedule Name
  ASHRAETau,                              ! Solar Model Indicator
  ,                                       ! Beam Solar Day Schedule Name
  ,                                       ! Diffuse Solar Day Schedule Name
  0.463,                                  ! ASHRAE Taub {dimensionless}
  2.001;                                  ! ASHRAE Taud {dimensionless}

OS:ComponentData,
  {261aad05-bfae-40bf-8319-2e316adf1492}, ! Handle
  Component Data 1,                       ! Name
  {1b13237f-6920-416d-9b1d-7c86cb7cc64a}, ! UUID
  {8f3abdc2-0464-41d6-ab70-3cec89d4a789}, ! Version UUID
  1366309714,                             ! Creation Timestamp
  1366309714,                             ! Version Timestamp
  {d6fc264f-9201-4095-946c-f1924812a313}; ! Name of Object 1

