
OS:Version,
  {53f2c0be-eea9-430b-8787-f693758e9041}, ! Handle
  0.9.3;                                  ! Version Identifier

OS:SizingPeriod:DesignDay,
  {73a75246-1fb0-4286-b758-da84e7305967}, ! Handle
  Walnut Ridge  Awos Ann Clg 2% Condns Enth=>MDB, ! Name
  30.8,                                   ! Maximum Dry-Bulb Temperature {C}
  9.7,                                    ! Daily Dry-Bulb Temperature Range {deltaC}
  77700,                                  ! Humidity Indicating Conditions at Maximum Dry-Bulb {BasedOnField A3}
  100332,                                 ! Barometric Pressure {Pa}
  4,                                      ! Wind Speed {m/s}
  180,                                    ! Wind Direction {deg}
  0,                                      ! Sky Clearness
  0,                                      ! Rain Indicator
  0,                                      ! Snow Indicator
  21,                                     ! Day of Month
  7,                                      ! Month
  SummerDesignDay,                        ! Day Type
  0,                                      ! Daylight Saving Time Indicator
  Enthalpy,                               ! Humidity Indicating Type
  ,                                       ! Humidity Indicating Day Schedule Name
  DefaultMultipliers,                     ! Dry-Bulb Temperature Range Modifier Type
  ,                                       ! Dry-Bulb Temperature Range Modifier Schedule Name
  ASHRAETau,                              ! Solar Model Indicator
  ,                                       ! Beam Solar Day Schedule Name
  ,                                       ! Diffuse Solar Day Schedule Name
  0.495,                                  ! ASHRAE Taub {dimensionless}
  1.945;                                  ! ASHRAE Taud {dimensionless}

OS:ComponentData,
  {dc1ff4ad-e056-474a-8567-de1d0b58eedf}, ! Handle
  Component Data 1,                       ! Name
  {490e0e7b-ad8b-419d-b424-07adf55eab30}, ! UUID
  {9587a51b-0ef7-47f5-8729-df98a2dd413f}, ! Version UUID
  1366306259,                             ! Creation Timestamp
  1366306259,                             ! Version Timestamp
  {73a75246-1fb0-4286-b758-da84e7305967}; ! Name of Object 1

