
OS:Version,
  {9d06bed5-c755-4078-aa14-7986ffe94603}, ! Handle
  0.9.3;                                  ! Version Identifier

OS:SizingPeriod:DesignDay,
  {6a59cc64-39e6-4303-ac1c-02a7355c91bf}, ! Handle
  Ukiah Municipal Ap Ann Clg 1% Condns DB=>MWB, ! Name
  36.1,                                   ! Maximum Dry-Bulb Temperature {C}
  19.5,                                   ! Daily Dry-Bulb Temperature Range {deltaC}
  19.9,                                   ! Humidity Indicating Conditions at Maximum Dry-Bulb {BasedOnField A3}
  99075,                                  ! Barometric Pressure {Pa}
  3.5,                                    ! Wind Speed {m/s}
  240,                                    ! Wind Direction {deg}
  0,                                      ! Sky Clearness
  0,                                      ! Rain Indicator
  0,                                      ! Snow Indicator
  21,                                     ! Day of Month
  7,                                      ! Month
  SummerDesignDay,                        ! Day Type
  0,                                      ! Daylight Saving Time Indicator
  Wetbulb,                                ! Humidity Indicating Type
  ,                                       ! Humidity Indicating Day Schedule Name
  DefaultMultipliers,                     ! Dry-Bulb Temperature Range Modifier Type
  ,                                       ! Dry-Bulb Temperature Range Modifier Schedule Name
  ASHRAETau,                              ! Solar Model Indicator
  ,                                       ! Beam Solar Day Schedule Name
  ,                                       ! Diffuse Solar Day Schedule Name
  0.352,                                  ! ASHRAE Taub {dimensionless}
  2.545;                                  ! ASHRAE Taud {dimensionless}

OS:ComponentData,
  {8733b32f-4584-411a-844a-93e9de013f35}, ! Handle
  Component Data 1,                       ! Name
  {655f12ff-826f-4595-b1bd-311fd54c25f5}, ! UUID
  {606ffb18-7952-4221-8e67-c4f284e8cf09}, ! Version UUID
  1366306629,                             ! Creation Timestamp
  1366306629,                             ! Version Timestamp
  {6a59cc64-39e6-4303-ac1c-02a7355c91bf}; ! Name of Object 1

