
OS:Version,
  {d03dcf88-8efe-4e60-9e59-370dbd929031}, ! Handle
  0.9.3;                                  ! Version Identifier

OS:SizingPeriod:DesignDay,
  {c20f6667-79ae-4514-be2d-0cd77e7e9401}, ! Handle
  Portland Ann Clg .4% Condns DP=>MDB,    ! Name
  24,                                     ! Maximum Dry-Bulb Temperature {C}
  12.2,                                   ! Daily Dry-Bulb Temperature Range {deltaC}
  17.1,                                   ! Humidity Indicating Conditions at Maximum Dry-Bulb {BasedOnField A3}
  101181,                                 ! Barometric Pressure {Pa}
  4.7,                                    ! Wind Speed {m/s}
  310,                                    ! Wind Direction {deg}
  0,                                      ! Sky Clearness
  0,                                      ! Rain Indicator
  0,                                      ! Snow Indicator
  21,                                     ! Day of Month
  8,                                      ! Month
  SummerDesignDay,                        ! Day Type
  0,                                      ! Daylight Saving Time Indicator
  Dewpoint,                               ! Humidity Indicating Type
  ,                                       ! Humidity Indicating Day Schedule Name
  DefaultMultipliers,                     ! Dry-Bulb Temperature Range Modifier Type
  ,                                       ! Dry-Bulb Temperature Range Modifier Schedule Name
  ASHRAETau,                              ! Solar Model Indicator
  ,                                       ! Beam Solar Day Schedule Name
  ,                                       ! Diffuse Solar Day Schedule Name
  0.358,                                  ! ASHRAE Taub {dimensionless}
  2.549;                                  ! ASHRAE Taud {dimensionless}

OS:ComponentData,
  {098cbe59-bafc-4a46-b17f-7d99ed9202bf}, ! Handle
  Component Data 1,                       ! Name
  {d64b4e46-2012-4391-bba8-1ddd8d5e330a}, ! UUID
  {7692468c-0da3-4df5-be40-a37db6e5bf5f}, ! Version UUID
  1366310079,                             ! Creation Timestamp
  1366310079,                             ! Version Timestamp
  {c20f6667-79ae-4514-be2d-0cd77e7e9401}; ! Name of Object 1

