
OS:Version,
  {e385e888-a23a-4028-b476-7d855ef39d21}, ! Handle
  0.9.3;                                  ! Version Identifier

OS:SizingPeriod:DesignDay,
  {b17c0997-8e77-42c3-99fc-63bbb5571b7a}, ! Handle
  St Louis Spirit Of St Louis A Ann Clg 2% Condns Enth=>MDB, ! Name
  30.7,                                   ! Maximum Dry-Bulb Temperature {C}
  11.1,                                   ! Daily Dry-Bulb Temperature Range {deltaC}
  76900,                                  ! Humidity Indicating Conditions at Maximum Dry-Bulb {BasedOnField A3}
  99643,                                  ! Barometric Pressure {Pa}
  4.1,                                    ! Wind Speed {m/s}
  220,                                    ! Wind Direction {deg}
  0,                                      ! Sky Clearness
  0,                                      ! Rain Indicator
  0,                                      ! Snow Indicator
  21,                                     ! Day of Month
  7,                                      ! Month
  SummerDesignDay,                        ! Day Type
  0,                                      ! Daylight Saving Time Indicator
  Enthalpy,                               ! Humidity Indicating Type
  ,                                       ! Humidity Indicating Day Schedule Name
  DefaultMultipliers,                     ! Dry-Bulb Temperature Range Modifier Type
  ,                                       ! Dry-Bulb Temperature Range Modifier Schedule Name
  ASHRAETau,                              ! Solar Model Indicator
  ,                                       ! Beam Solar Day Schedule Name
  ,                                       ! Diffuse Solar Day Schedule Name
  0.475,                                  ! ASHRAE Taub {dimensionless}
  1.999;                                  ! ASHRAE Taud {dimensionless}

OS:ComponentData,
  {3788c15a-5b7f-4aee-8e92-dfa1e3b97626}, ! Handle
  Component Data 1,                       ! Name
  {c25aaad7-9af2-4912-bc1c-91ded7e9e2f4}, ! UUID
  {12314f2d-0042-41d3-b8c0-ea80f8f09839}, ! Version UUID
  1366308592,                             ! Creation Timestamp
  1366308592,                             ! Version Timestamp
  {b17c0997-8e77-42c3-99fc-63bbb5571b7a}; ! Name of Object 1

