
OS:Version,
  {270a4c09-402e-438b-9ba3-a3f4cb0fe816}, ! Handle
  0.9.3;                                  ! Version Identifier

OS:SizingPeriod:DesignDay,
  {6b48701a-7537-48b5-baa6-52d79b8fa774}, ! Handle
  Ocala Muni  Awos Ann Htg 99.6% Condns DB, ! Name
  -1.3,                                   ! Maximum Dry-Bulb Temperature {C}
  0,                                      ! Daily Dry-Bulb Temperature Range {deltaC}
  -1.3,                                   ! Humidity Indicating Conditions at Maximum Dry-Bulb {BasedOnField A3}
  101001,                                 ! Barometric Pressure {Pa}
  0.9,                                    ! Wind Speed {m/s}
  0,                                      ! Wind Direction {deg}
  0,                                      ! Sky Clearness
  0,                                      ! Rain Indicator
  0,                                      ! Snow Indicator
  21,                                     ! Day of Month
  1,                                      ! Month
  WinterDesignDay,                        ! Day Type
  0,                                      ! Daylight Saving Time Indicator
  Wetbulb,                                ! Humidity Indicating Type
  ,                                       ! Humidity Indicating Day Schedule Name
  DefaultMultipliers,                     ! Dry-Bulb Temperature Range Modifier Type
  ,                                       ! Dry-Bulb Temperature Range Modifier Schedule Name
  ASHRAEClearSky;                         ! Solar Model Indicator

OS:ComponentData,
  {a9c0718e-aec0-4992-acbb-d60f05816de9}, ! Handle
  Component Data 1,                       ! Name
  {5e9a2dbf-a9e7-411d-af42-d813df61b850}, ! UUID
  {8b72df3a-70d1-49dc-a095-aea2b563968a}, ! Version UUID
  1366306880,                             ! Creation Timestamp
  1366306880,                             ! Version Timestamp
  {6b48701a-7537-48b5-baa6-52d79b8fa774}; ! Name of Object 1

