
OS:Version,
  {f83bfa78-24b5-4352-a594-d4e601ca2cf0}, ! Handle
  0.9.3;                                  ! Version Identifier

OS:SizingPeriod:DesignDay,
  {117c39e6-6b82-4124-9834-c91a85cd65cd}, ! Handle
  Shreveport Downtown Ann Clg 2% Condns WB=>MDB, ! Name
  31.8,                                   ! Maximum Dry-Bulb Temperature {C}
  9.9,                                    ! Daily Dry-Bulb Temperature Range {deltaC}
  25.6,                                   ! Humidity Indicating Conditions at Maximum Dry-Bulb {BasedOnField A3}
  100666,                                 ! Barometric Pressure {Pa}
  3,                                      ! Wind Speed {m/s}
  130,                                    ! Wind Direction {deg}
  0,                                      ! Sky Clearness
  0,                                      ! Rain Indicator
  0,                                      ! Snow Indicator
  21,                                     ! Day of Month
  7,                                      ! Month
  SummerDesignDay,                        ! Day Type
  0,                                      ! Daylight Saving Time Indicator
  Wetbulb,                                ! Humidity Indicating Type
  ,                                       ! Humidity Indicating Day Schedule Name
  DefaultMultipliers,                     ! Dry-Bulb Temperature Range Modifier Type
  ,                                       ! Dry-Bulb Temperature Range Modifier Schedule Name
  ASHRAETau,                              ! Solar Model Indicator
  ,                                       ! Beam Solar Day Schedule Name
  ,                                       ! Diffuse Solar Day Schedule Name
  0.491,                                  ! ASHRAE Taub {dimensionless}
  2.008;                                  ! ASHRAE Taud {dimensionless}

OS:ComponentData,
  {ac09785a-96ec-4655-9935-72200881441e}, ! Handle
  Component Data 1,                       ! Name
  {2576faef-0707-4fc0-bc70-d7593d883f36}, ! UUID
  {f30c121a-5169-4ca7-807d-c14e359d3cad}, ! Version UUID
  1366307766,                             ! Creation Timestamp
  1366307766,                             ! Version Timestamp
  {117c39e6-6b82-4124-9834-c91a85cd65cd}; ! Name of Object 1

