
OS:Version,
  {854b8011-fe58-4d9e-a15c-0b5e6460ee85}, ! Handle
  0.9.3;                                  ! Version Identifier

OS:SizingPeriod:DesignDay,
  {f016cf56-ca55-4363-a122-7f79a1f0b2c6}, ! Handle
  San Antonio Stinson Ann Clg 2% Condns Enth=>MDB, ! Name
  30.9,                                   ! Maximum Dry-Bulb Temperature {C}
  11.7,                                   ! Daily Dry-Bulb Temperature Range {deltaC}
  78500,                                  ! Humidity Indicating Conditions at Maximum Dry-Bulb {BasedOnField A3}
  99228,                                  ! Barometric Pressure {Pa}
  4.4,                                    ! Wind Speed {m/s}
  130,                                    ! Wind Direction {deg}
  0,                                      ! Sky Clearness
  0,                                      ! Rain Indicator
  0,                                      ! Snow Indicator
  21,                                     ! Day of Month
  8,                                      ! Month
  SummerDesignDay,                        ! Day Type
  0,                                      ! Daylight Saving Time Indicator
  Enthalpy,                               ! Humidity Indicating Type
  ,                                       ! Humidity Indicating Day Schedule Name
  DefaultMultipliers,                     ! Dry-Bulb Temperature Range Modifier Type
  ,                                       ! Dry-Bulb Temperature Range Modifier Schedule Name
  ASHRAETau,                              ! Solar Model Indicator
  ,                                       ! Beam Solar Day Schedule Name
  ,                                       ! Diffuse Solar Day Schedule Name
  0.454,                                  ! ASHRAE Taub {dimensionless}
  2.127;                                  ! ASHRAE Taud {dimensionless}

OS:ComponentData,
  {daa9a41f-ef1f-4cb8-ae18-1be503658bc7}, ! Handle
  Component Data 1,                       ! Name
  {6d51b7b0-5f42-420c-847b-67680795b25c}, ! UUID
  {e7ddaba6-e718-4b4c-9185-fe1d04eab208}, ! Version UUID
  1366310887,                             ! Creation Timestamp
  1366310887,                             ! Version Timestamp
  {f016cf56-ca55-4363-a122-7f79a1f0b2c6}; ! Name of Object 1

