
OS:Version,
  {6bab826b-84f1-41af-bb33-90ea533c01f6}, ! Handle
  0.9.3;                                  ! Version Identifier

OS:SizingPeriod:DesignDay,
  {4188f977-3b30-466e-9d14-08473677be8d}, ! Handle
  Trinidad Las Animas County Ap Ann Clg 2% Condns DP=>MDB, ! Name
  20.2,                                   ! Maximum Dry-Bulb Temperature {C}
  15.6,                                   ! Daily Dry-Bulb Temperature Range {deltaC}
  13.7,                                   ! Humidity Indicating Conditions at Maximum Dry-Bulb {BasedOnField A3}
  81984,                                  ! Barometric Pressure {Pa}
  4.7,                                    ! Wind Speed {m/s}
  180,                                    ! Wind Direction {deg}
  0,                                      ! Sky Clearness
  0,                                      ! Rain Indicator
  0,                                      ! Snow Indicator
  21,                                     ! Day of Month
  7,                                      ! Month
  SummerDesignDay,                        ! Day Type
  0,                                      ! Daylight Saving Time Indicator
  Dewpoint,                               ! Humidity Indicating Type
  ,                                       ! Humidity Indicating Day Schedule Name
  DefaultMultipliers,                     ! Dry-Bulb Temperature Range Modifier Type
  ,                                       ! Dry-Bulb Temperature Range Modifier Schedule Name
  ASHRAETau,                              ! Solar Model Indicator
  ,                                       ! Beam Solar Day Schedule Name
  ,                                       ! Diffuse Solar Day Schedule Name
  0.396,                                  ! ASHRAE Taub {dimensionless}
  2.111;                                  ! ASHRAE Taud {dimensionless}

OS:ComponentData,
  {dcbdd3e1-aa20-461a-9f03-bb5ebebbe87c}, ! Handle
  Component Data 1,                       ! Name
  {daaa9574-f7f8-43ac-8728-ba07af71ebf4}, ! UUID
  {5846599a-cdc0-46a8-b286-aa8e68723b81}, ! Version UUID
  1366306744,                             ! Creation Timestamp
  1366306744,                             ! Version Timestamp
  {4188f977-3b30-466e-9d14-08473677be8d}; ! Name of Object 1

