
OS:Version,
  {73e32442-b05d-4217-bf89-b1f3eb3e5565}, ! Handle
  0.9.3;                                  ! Version Identifier

OS:SizingPeriod:DesignDay,
  {4a53f94a-051a-4c2c-aae1-541f49ea7d41}, ! Handle
  Salina Municipal Ap Ann Clg 2% Condns DP=>MDB, ! Name
  27.8,                                   ! Maximum Dry-Bulb Temperature {C}
  12.6,                                   ! Daily Dry-Bulb Temperature Range {deltaC}
  21.7,                                   ! Humidity Indicating Conditions at Maximum Dry-Bulb {BasedOnField A3}
  96785,                                  ! Barometric Pressure {Pa}
  6.9,                                    ! Wind Speed {m/s}
  190,                                    ! Wind Direction {deg}
  0,                                      ! Sky Clearness
  0,                                      ! Rain Indicator
  0,                                      ! Snow Indicator
  21,                                     ! Day of Month
  7,                                      ! Month
  SummerDesignDay,                        ! Day Type
  0,                                      ! Daylight Saving Time Indicator
  Dewpoint,                               ! Humidity Indicating Type
  ,                                       ! Humidity Indicating Day Schedule Name
  DefaultMultipliers,                     ! Dry-Bulb Temperature Range Modifier Type
  ,                                       ! Dry-Bulb Temperature Range Modifier Schedule Name
  ASHRAETau,                              ! Solar Model Indicator
  ,                                       ! Beam Solar Day Schedule Name
  ,                                       ! Diffuse Solar Day Schedule Name
  0.42,                                   ! ASHRAE Taub {dimensionless}
  2.193;                                  ! ASHRAE Taud {dimensionless}

OS:ComponentData,
  {5973ded5-2cf9-46d3-95ff-3c6927099365}, ! Handle
  Component Data 1,                       ! Name
  {902feed4-9bfc-4e48-b68e-ed6be56bb7e5}, ! UUID
  {c90a0edc-c824-48f4-8182-ee055cbc0805}, ! Version UUID
  1366307576,                             ! Creation Timestamp
  1366307576,                             ! Version Timestamp
  {4a53f94a-051a-4c2c-aae1-541f49ea7d41}; ! Name of Object 1

