
OS:Version,
  {30f40175-dabe-4751-a063-ad32bc100fbb}, ! Handle
  0.9.3;                                  ! Version Identifier

OS:SizingPeriod:DesignDay,
  {3e8e7b84-1e82-4c07-af2f-df4d81f4de8b}, ! Handle
  Molokai  Amos Ann Clg .4% Condns DB=>MWB, ! Name
  31,                                     ! Maximum Dry-Bulb Temperature {C}
  7,                                      ! Daily Dry-Bulb Temperature Range {deltaC}
  22.8,                                   ! Humidity Indicating Conditions at Maximum Dry-Bulb {BasedOnField A3}
  99690,                                  ! Barometric Pressure {Pa}
  6.1,                                    ! Wind Speed {m/s}
  60,                                     ! Wind Direction {deg}
  0,                                      ! Sky Clearness
  0,                                      ! Rain Indicator
  0,                                      ! Snow Indicator
  21,                                     ! Day of Month
  8,                                      ! Month
  SummerDesignDay,                        ! Day Type
  0,                                      ! Daylight Saving Time Indicator
  Wetbulb,                                ! Humidity Indicating Type
  ,                                       ! Humidity Indicating Day Schedule Name
  DefaultMultipliers,                     ! Dry-Bulb Temperature Range Modifier Type
  ,                                       ! Dry-Bulb Temperature Range Modifier Schedule Name
  ASHRAETau,                              ! Solar Model Indicator
  ,                                       ! Beam Solar Day Schedule Name
  ,                                       ! Diffuse Solar Day Schedule Name
  0.373,                                  ! ASHRAE Taub {dimensionless}
  2.559;                                  ! ASHRAE Taud {dimensionless}

OS:ComponentData,
  {c80bd7da-80a4-44d9-bf29-e1a000f508ed}, ! Handle
  Component Data 1,                       ! Name
  {35fd2e7c-c879-4bed-b765-0a1c3ef7d7a8}, ! UUID
  {1a60ecf9-67ea-4376-9904-a7177775dc61}, ! Version UUID
  1366307128,                             ! Creation Timestamp
  1366307128,                             ! Version Timestamp
  {3e8e7b84-1e82-4c07-af2f-df4d81f4de8b}; ! Name of Object 1

