
OS:Version,
  {09be4b5e-3660-4fb4-b940-46105eaa4286}, ! Handle
  0.9.3;                                  ! Version Identifier

OS:SizingPeriod:DesignDay,
  {84649c51-7847-4856-8958-d6445a6c005d}, ! Handle
  Olympia Ann Clg 1% Condns WB=>MDB,      ! Name
  27.3,                                   ! Maximum Dry-Bulb Temperature {C}
  14.6,                                   ! Daily Dry-Bulb Temperature Range {deltaC}
  18.8,                                   ! Humidity Indicating Conditions at Maximum Dry-Bulb {BasedOnField A3}
  100594,                                 ! Barometric Pressure {Pa}
  3.4,                                    ! Wind Speed {m/s}
  20,                                     ! Wind Direction {deg}
  0,                                      ! Sky Clearness
  0,                                      ! Rain Indicator
  0,                                      ! Snow Indicator
  21,                                     ! Day of Month
  8,                                      ! Month
  SummerDesignDay,                        ! Day Type
  0,                                      ! Daylight Saving Time Indicator
  Wetbulb,                                ! Humidity Indicating Type
  ,                                       ! Humidity Indicating Day Schedule Name
  DefaultMultipliers,                     ! Dry-Bulb Temperature Range Modifier Type
  ,                                       ! Dry-Bulb Temperature Range Modifier Schedule Name
  ASHRAETau,                              ! Solar Model Indicator
  ,                                       ! Beam Solar Day Schedule Name
  ,                                       ! Diffuse Solar Day Schedule Name
  0.359,                                  ! ASHRAE Taub {dimensionless}
  2.536;                                  ! ASHRAE Taud {dimensionless}

OS:ComponentData,
  {ba015b50-62b9-47b4-a4d0-4416de6d2bc4}, ! Handle
  Component Data 1,                       ! Name
  {9c480a77-38ac-4c71-a771-65e9f34c72ac}, ! UUID
  {bb98df3f-1f09-42bd-8aae-733b782d1297}, ! Version UUID
  1366311309,                             ! Creation Timestamp
  1366311309,                             ! Version Timestamp
  {84649c51-7847-4856-8958-d6445a6c005d}; ! Name of Object 1

