
OS:Version,
  {51c7557d-9a03-454e-9f62-883595d6b930}, ! Handle
  0.9.3;                                  ! Version Identifier

OS:SizingPeriod:DesignDay,
  {8940bc16-d5af-4758-bfbc-bbf4019c4e64}, ! Handle
  Robert Gray Aaf Ann Clg 1% Condns WB=>MDB, ! Name
  31.7,                                   ! Maximum Dry-Bulb Temperature {C}
  12,                                     ! Daily Dry-Bulb Temperature Range {deltaC}
  24.9,                                   ! Humidity Indicating Conditions at Maximum Dry-Bulb {BasedOnField A3}
  97633,                                  ! Barometric Pressure {Pa}
  4.2,                                    ! Wind Speed {m/s}
  160,                                    ! Wind Direction {deg}
  0,                                      ! Sky Clearness
  0,                                      ! Rain Indicator
  0,                                      ! Snow Indicator
  21,                                     ! Day of Month
  8,                                      ! Month
  SummerDesignDay,                        ! Day Type
  0,                                      ! Daylight Saving Time Indicator
  Wetbulb,                                ! Humidity Indicating Type
  ,                                       ! Humidity Indicating Day Schedule Name
  DefaultMultipliers,                     ! Dry-Bulb Temperature Range Modifier Type
  ,                                       ! Dry-Bulb Temperature Range Modifier Schedule Name
  ASHRAETau,                              ! Solar Model Indicator
  ,                                       ! Beam Solar Day Schedule Name
  ,                                       ! Diffuse Solar Day Schedule Name
  0.443,                                  ! ASHRAE Taub {dimensionless}
  2.148;                                  ! ASHRAE Taud {dimensionless}

OS:ComponentData,
  {b22da6dc-56d9-4e43-81ef-af48729e8ff0}, ! Handle
  Component Data 1,                       ! Name
  {545dd4b7-7c1d-4490-91a7-af6b7e79a8c8}, ! UUID
  {5a447903-1393-4d8a-99a1-724deaec4c8a}, ! Version UUID
  1366310764,                             ! Creation Timestamp
  1366310764,                             ! Version Timestamp
  {8940bc16-d5af-4758-bfbc-bbf4019c4e64}; ! Name of Object 1

