
OS:Version,
  {e0ccb991-e832-4e51-83e3-5b1b861fdbb8}, ! Handle
  0.9.3;                                  ! Version Identifier

OS:SizingPeriod:DesignDay,
  {a735f182-07b4-4d67-ab35-eeef292a83cd}, ! Handle
  Shemya Afb Ann Clg .4% Condns Enth=>MDB, ! Name
  12.2,                                   ! Maximum Dry-Bulb Temperature {C}
  2.5,                                    ! Daily Dry-Bulb Temperature Range {deltaC}
  32300,                                  ! Humidity Indicating Conditions at Maximum Dry-Bulb {BasedOnField A3}
  100953,                                 ! Barometric Pressure {Pa}
  6.5,                                    ! Wind Speed {m/s}
  240,                                    ! Wind Direction {deg}
  0,                                      ! Sky Clearness
  0,                                      ! Rain Indicator
  0,                                      ! Snow Indicator
  21,                                     ! Day of Month
  8,                                      ! Month
  SummerDesignDay,                        ! Day Type
  0,                                      ! Daylight Saving Time Indicator
  Enthalpy,                               ! Humidity Indicating Type
  ,                                       ! Humidity Indicating Day Schedule Name
  DefaultMultipliers,                     ! Dry-Bulb Temperature Range Modifier Type
  ,                                       ! Dry-Bulb Temperature Range Modifier Schedule Name
  ASHRAETau,                              ! Solar Model Indicator
  ,                                       ! Beam Solar Day Schedule Name
  ,                                       ! Diffuse Solar Day Schedule Name
  0.391,                                  ! ASHRAE Taub {dimensionless}
  2.284;                                  ! ASHRAE Taud {dimensionless}

OS:ComponentData,
  {44e9951e-5ad7-4335-8413-bf01e94ff45e}, ! Handle
  Component Data 1,                       ! Name
  {f771d034-6bb8-4253-a18c-1311335a2d09}, ! UUID
  {4d663201-2599-4af9-8f35-8b690d83c483}, ! Version UUID
  1366305543,                             ! Creation Timestamp
  1366305543,                             ! Version Timestamp
  {a735f182-07b4-4d67-ab35-eeef292a83cd}; ! Name of Object 1

