
OS:Version,
  {97f7cba5-9d20-4feb-8a64-57f9e505a813}, ! Handle
  0.9.3;                                  ! Version Identifier

OS:SizingPeriod:DesignDay,
  {c0cd0705-833c-4765-9d29-1e0eb053255a}, ! Handle
  Memphis International Ap Ann Clg .4% Condns Enth=>MDB, ! Name
  33,                                     ! Maximum Dry-Bulb Temperature {C}
  9.2,                                    ! Daily Dry-Bulb Temperature Range {deltaC}
  84100,                                  ! Humidity Indicating Conditions at Maximum Dry-Bulb {BasedOnField A3}
  100356,                                 ! Barometric Pressure {Pa}
  3.8,                                    ! Wind Speed {m/s}
  240,                                    ! Wind Direction {deg}
  0,                                      ! Sky Clearness
  0,                                      ! Rain Indicator
  0,                                      ! Snow Indicator
  21,                                     ! Day of Month
  7,                                      ! Month
  SummerDesignDay,                        ! Day Type
  0,                                      ! Daylight Saving Time Indicator
  Enthalpy,                               ! Humidity Indicating Type
  ,                                       ! Humidity Indicating Day Schedule Name
  DefaultMultipliers,                     ! Dry-Bulb Temperature Range Modifier Type
  ,                                       ! Dry-Bulb Temperature Range Modifier Schedule Name
  ASHRAETau,                              ! Solar Model Indicator
  ,                                       ! Beam Solar Day Schedule Name
  ,                                       ! Diffuse Solar Day Schedule Name
  0.512,                                  ! ASHRAE Taub {dimensionless}
  1.892;                                  ! ASHRAE Taud {dimensionless}

OS:ComponentData,
  {e6e8fcd3-fcff-43ab-9bfb-65bddeaeda73}, ! Handle
  Component Data 1,                       ! Name
  {60e03cb9-5971-45fa-930b-4211e0f88250}, ! UUID
  {ed606d6d-83d5-44db-8f5d-a7b0223a0315}, ! Version UUID
  1366310530,                             ! Creation Timestamp
  1366310530,                             ! Version Timestamp
  {c0cd0705-833c-4765-9d29-1e0eb053255a}; ! Name of Object 1

