
OS:Version,
  {711ba88b-c03f-493b-9eff-d1a0d047cde3}, ! Handle
  0.9.3;                                  ! Version Identifier

OS:SizingPeriod:DesignDay,
  {081a26d1-dda0-4d5b-ae25-dae5ee9fa5d5}, ! Handle
  Myrtle Beach Afb Ann Hum_n 99% Condns DP=>MCDB, ! Name
  1.9,                                    ! Maximum Dry-Bulb Temperature {C}
  0,                                      ! Daily Dry-Bulb Temperature Range {deltaC}
  -11.1,                                  ! Humidity Indicating Conditions at Maximum Dry-Bulb {BasedOnField A3}
  101229,                                 ! Barometric Pressure {Pa}
  2.2,                                    ! Wind Speed {m/s}
  0,                                      ! Wind Direction {deg}
  0,                                      ! Sky Clearness
  0,                                      ! Rain Indicator
  0,                                      ! Snow Indicator
  21,                                     ! Day of Month
  1,                                      ! Month
  WinterDesignDay,                        ! Day Type
  0,                                      ! Daylight Saving Time Indicator
  Dewpoint,                               ! Humidity Indicating Type
  ,                                       ! Humidity Indicating Day Schedule Name
  DefaultMultipliers,                     ! Dry-Bulb Temperature Range Modifier Type
  ,                                       ! Dry-Bulb Temperature Range Modifier Schedule Name
  ASHRAEClearSky;                         ! Solar Model Indicator

OS:ComponentData,
  {5b63791b-17ac-4175-93ec-4794aa16cc73}, ! Handle
  Component Data 1,                       ! Name
  {d96a41cd-062d-4525-8b61-de6a7ebcdc45}, ! UUID
  {cbbebc11-9981-47ea-be1f-fcd717dd36e6}, ! Version UUID
  1366310372,                             ! Creation Timestamp
  1366310372,                             ! Version Timestamp
  {081a26d1-dda0-4d5b-ae25-dae5ee9fa5d5}; ! Name of Object 1

