
OS:Version,
  {d15d3fe0-50e8-4b0d-b166-9dbd9b2fc1d8}, ! Handle
  0.9.3;                                  ! Version Identifier

OS:SizingPeriod:DesignDay,
  {cba394d6-de41-4ec8-b522-54006af1b4fd}, ! Handle
  Soldotna Ann Htg 99.6% Condns DB,       ! Name
  -31.8,                                  ! Maximum Dry-Bulb Temperature {C}
  0,                                      ! Daily Dry-Bulb Temperature Range {deltaC}
  -31.8,                                  ! Humidity Indicating Conditions at Maximum Dry-Bulb {BasedOnField A3}
  100917,                                 ! Barometric Pressure {Pa}
  0.9,                                    ! Wind Speed {m/s}
  100,                                    ! Wind Direction {deg}
  0,                                      ! Sky Clearness
  0,                                      ! Rain Indicator
  0,                                      ! Snow Indicator
  21,                                     ! Day of Month
  1,                                      ! Month
  WinterDesignDay,                        ! Day Type
  0,                                      ! Daylight Saving Time Indicator
  Wetbulb,                                ! Humidity Indicating Type
  ,                                       ! Humidity Indicating Day Schedule Name
  DefaultMultipliers,                     ! Dry-Bulb Temperature Range Modifier Type
  ,                                       ! Dry-Bulb Temperature Range Modifier Schedule Name
  ASHRAEClearSky;                         ! Solar Model Indicator

OS:ComponentData,
  {38432b99-4c96-4df2-b46b-4caaf30a1c83}, ! Handle
  Component Data 1,                       ! Name
  {48ca0e8e-81be-40ac-a77d-d2fa57a39fd9}, ! UUID
  {fce5464e-a144-44c8-be52-d01c1e8951ed}, ! Version UUID
  1366305565,                             ! Creation Timestamp
  1366305565,                             ! Version Timestamp
  {cba394d6-de41-4ec8-b522-54006af1b4fd}; ! Name of Object 1

