
OS:Version,
  {a10b55cf-845c-4678-beef-1422edccc82d}, ! Handle
  0.9.3;                                  ! Version Identifier

OS:SizingPeriod:DesignDay,
  {b3ca819a-49f6-4f46-82f0-e6d21141583b}, ! Handle
  Sand Point Ann Clg 2% Condns Enth=>MDB, ! Name
  13.6,                                   ! Maximum Dry-Bulb Temperature {C}
  3.8,                                    ! Daily Dry-Bulb Temperature Range {deltaC}
  33000,                                  ! Humidity Indicating Conditions at Maximum Dry-Bulb {BasedOnField A3}
  101241,                                 ! Barometric Pressure {Pa}
  4.2,                                    ! Wind Speed {m/s}
  350,                                    ! Wind Direction {deg}
  0,                                      ! Sky Clearness
  0,                                      ! Rain Indicator
  0,                                      ! Snow Indicator
  21,                                     ! Day of Month
  8,                                      ! Month
  SummerDesignDay,                        ! Day Type
  0,                                      ! Daylight Saving Time Indicator
  Enthalpy,                               ! Humidity Indicating Type
  ,                                       ! Humidity Indicating Day Schedule Name
  DefaultMultipliers,                     ! Dry-Bulb Temperature Range Modifier Type
  ,                                       ! Dry-Bulb Temperature Range Modifier Schedule Name
  ASHRAETau,                              ! Solar Model Indicator
  ,                                       ! Beam Solar Day Schedule Name
  ,                                       ! Diffuse Solar Day Schedule Name
  0.381,                                  ! ASHRAE Taub {dimensionless}
  2.28;                                   ! ASHRAE Taud {dimensionless}

