
OS:Version,
  {655b52cb-1596-4194-8539-55e709ffd7e6}, ! Handle
  0.9.3;                                  ! Version Identifier

OS:SizingPeriod:DesignDay,
  {6d53dd6a-1777-4add-8c05-86de16204c02}, ! Handle
  Winnemucca Municipal Arpt Ann Clg 1% Condns DB=>MWB, ! Name
  35,                                     ! Maximum Dry-Bulb Temperature {C}
  21.5,                                   ! Daily Dry-Bulb Temperature Range {deltaC}
  16.3,                                   ! Humidity Indicating Conditions at Maximum Dry-Bulb {BasedOnField A3}
  86546,                                  ! Barometric Pressure {Pa}
  4.4,                                    ! Wind Speed {m/s}
  240,                                    ! Wind Direction {deg}
  0,                                      ! Sky Clearness
  0,                                      ! Rain Indicator
  0,                                      ! Snow Indicator
  21,                                     ! Day of Month
  7,                                      ! Month
  SummerDesignDay,                        ! Day Type
  0,                                      ! Daylight Saving Time Indicator
  Wetbulb,                                ! Humidity Indicating Type
  ,                                       ! Humidity Indicating Day Schedule Name
  DefaultMultipliers,                     ! Dry-Bulb Temperature Range Modifier Type
  ,                                       ! Dry-Bulb Temperature Range Modifier Schedule Name
  ASHRAETau,                              ! Solar Model Indicator
  ,                                       ! Beam Solar Day Schedule Name
  ,                                       ! Diffuse Solar Day Schedule Name
  0.441,                                  ! ASHRAE Taub {dimensionless}
  1.893;                                  ! ASHRAE Taud {dimensionless}

OS:ComponentData,
  {58e6a4e3-d114-41e4-a6be-d92be0bce0b9}, ! Handle
  Component Data 1,                       ! Name
  {8ed97f7f-3630-4f0b-9f43-4ef32228af51}, ! UUID
  {5f31f57d-95cd-4525-a15d-4ae4c165466e}, ! Version UUID
  1366309569,                             ! Creation Timestamp
  1366309569,                             ! Version Timestamp
  {6d53dd6a-1777-4add-8c05-86de16204c02}; ! Name of Object 1

