
OS:Version,
  {da4a2698-38d6-49c0-85be-bcd976da1c9d}, ! Handle
  0.9.3;                                  ! Version Identifier

OS:SizingPeriod:DesignDay,
  {7c34355b-5281-4019-b117-be086a24c4d3}, ! Handle
  Tonopah Airport Ann Clg .4% Condns DB=>MWB, ! Name
  35.2,                                   ! Maximum Dry-Bulb Temperature {C}
  18.2,                                   ! Daily Dry-Bulb Temperature Range {deltaC}
  15.6,                                   ! Humidity Indicating Conditions at Maximum Dry-Bulb {BasedOnField A3}
  82960,                                  ! Barometric Pressure {Pa}
  5.1,                                    ! Wind Speed {m/s}
  180,                                    ! Wind Direction {deg}
  0,                                      ! Sky Clearness
  0,                                      ! Rain Indicator
  0,                                      ! Snow Indicator
  21,                                     ! Day of Month
  7,                                      ! Month
  SummerDesignDay,                        ! Day Type
  0,                                      ! Daylight Saving Time Indicator
  Wetbulb,                                ! Humidity Indicating Type
  ,                                       ! Humidity Indicating Day Schedule Name
  DefaultMultipliers,                     ! Dry-Bulb Temperature Range Modifier Type
  ,                                       ! Dry-Bulb Temperature Range Modifier Schedule Name
  ASHRAETau,                              ! Solar Model Indicator
  ,                                       ! Beam Solar Day Schedule Name
  ,                                       ! Diffuse Solar Day Schedule Name
  0.483,                                  ! ASHRAE Taub {dimensionless}
  1.772;                                  ! ASHRAE Taud {dimensionless}

OS:ComponentData,
  {307cc9b5-4255-4b1e-b6f2-3c39b1298a84}, ! Handle
  Component Data 1,                       ! Name
  {926e299b-435c-4b37-a437-e2c5113f5b63}, ! UUID
  {6401ec3a-8a25-4158-8ae5-ade972df6e78}, ! Version UUID
  1366309554,                             ! Creation Timestamp
  1366309554,                             ! Version Timestamp
  {7c34355b-5281-4019-b117-be086a24c4d3}; ! Name of Object 1

