
OS:Version,
  {a39b6214-6e5c-4601-8af1-ca33e15a3ffd}, ! Handle
  0.9.3;                                  ! Version Identifier

OS:SizingPeriod:DesignDay,
  {96532a78-853b-4c02-a2ec-531aba5122f7}, ! Handle
  Northway Airport Ann Hum_n 99% Condns DP=>MCDB, ! Name
  -33.6,                                  ! Maximum Dry-Bulb Temperature {C}
  0,                                      ! Daily Dry-Bulb Temperature Range {deltaC}
  -38.5,                                  ! Humidity Indicating Conditions at Maximum Dry-Bulb {BasedOnField A3}
  95209,                                  ! Barometric Pressure {Pa}
  0.1,                                    ! Wind Speed {m/s}
  180,                                    ! Wind Direction {deg}
  0,                                      ! Sky Clearness
  0,                                      ! Rain Indicator
  0,                                      ! Snow Indicator
  21,                                     ! Day of Month
  1,                                      ! Month
  WinterDesignDay,                        ! Day Type
  0,                                      ! Daylight Saving Time Indicator
  Dewpoint,                               ! Humidity Indicating Type
  ,                                       ! Humidity Indicating Day Schedule Name
  DefaultMultipliers,                     ! Dry-Bulb Temperature Range Modifier Type
  ,                                       ! Dry-Bulb Temperature Range Modifier Schedule Name
  ASHRAEClearSky;                         ! Solar Model Indicator

OS:ComponentData,
  {b97c96ab-af5e-42e0-b516-a5693ce68052}, ! Handle
  Component Data 1,                       ! Name
  {fc95ea5e-9202-4c7c-bd11-95c52a5d7adc}, ! UUID
  {0970e480-a597-471b-9a49-2bae8c76dc02}, ! Version UUID
  1366305469,                             ! Creation Timestamp
  1366305469,                             ! Version Timestamp
  {96532a78-853b-4c02-a2ec-531aba5122f7}; ! Name of Object 1

