
OS:Version,
  {776c916e-6de9-460f-ac24-940c5f660d77}, ! Handle
  0.9.3;                                  ! Version Identifier

OS:SizingPeriod:DesignDay,
  {cc56c8ac-116d-42c0-bdb9-42e5b449286b}, ! Handle
  Topeka Ann Clg 2% Condns DP=>MDB,       ! Name
  28.5,                                   ! Maximum Dry-Bulb Temperature {C}
  11.3,                                   ! Daily Dry-Bulb Temperature Range {deltaC}
  22.8,                                   ! Humidity Indicating Conditions at Maximum Dry-Bulb {BasedOnField A3}
  98123,                                  ! Barometric Pressure {Pa}
  4.9,                                    ! Wind Speed {m/s}
  200,                                    ! Wind Direction {deg}
  0,                                      ! Sky Clearness
  0,                                      ! Rain Indicator
  0,                                      ! Snow Indicator
  21,                                     ! Day of Month
  7,                                      ! Month
  SummerDesignDay,                        ! Day Type
  0,                                      ! Daylight Saving Time Indicator
  Dewpoint,                               ! Humidity Indicating Type
  ,                                       ! Humidity Indicating Day Schedule Name
  DefaultMultipliers,                     ! Dry-Bulb Temperature Range Modifier Type
  ,                                       ! Dry-Bulb Temperature Range Modifier Schedule Name
  ASHRAETau,                              ! Solar Model Indicator
  ,                                       ! Beam Solar Day Schedule Name
  ,                                       ! Diffuse Solar Day Schedule Name
  0.434,                                  ! ASHRAE Taub {dimensionless}
  2.183;                                  ! ASHRAE Taud {dimensionless}

OS:ComponentData,
  {0c122371-1edd-46e1-a5f3-b392c03035f6}, ! Handle
  Component Data 1,                       ! Name
  {d11e4a8d-44c2-4c79-a5db-9be7c955391e}, ! UUID
  {f3c92591-a63b-43df-af7e-2f5103d5c552}, ! Version UUID
  1366307584,                             ! Creation Timestamp
  1366307584,                             ! Version Timestamp
  {cc56c8ac-116d-42c0-bdb9-42e5b449286b}; ! Name of Object 1

