
OS:Version,
  {bac577bc-376c-4def-8fd0-e9a94a609013}, ! Handle
  0.9.3;                                  ! Version Identifier

OS:SizingPeriod:DesignDay,
  {c61478ea-b75b-449f-b09c-077593ba9d76}, ! Handle
  Waterville  Awos Ann Htg Wind 99.6% Condns WS=>MCDB, ! Name
  -5.6,                                   ! Maximum Dry-Bulb Temperature {C}
  0,                                      ! Daily Dry-Bulb Temperature Range {deltaC}
  -5.6,                                   ! Humidity Indicating Conditions at Maximum Dry-Bulb {BasedOnField A3}
  100118,                                 ! Barometric Pressure {Pa}
  11,                                     ! Wind Speed {m/s}
  0,                                      ! Wind Direction {deg}
  0,                                      ! Sky Clearness
  0,                                      ! Rain Indicator
  0,                                      ! Snow Indicator
  21,                                     ! Day of Month
  1,                                      ! Month
  WinterDesignDay,                        ! Day Type
  0,                                      ! Daylight Saving Time Indicator
  Wetbulb,                                ! Humidity Indicating Type
  ,                                       ! Humidity Indicating Day Schedule Name
  DefaultMultipliers,                     ! Dry-Bulb Temperature Range Modifier Type
  ,                                       ! Dry-Bulb Temperature Range Modifier Schedule Name
  ASHRAEClearSky;                         ! Solar Model Indicator

OS:ComponentData,
  {7471847b-f15f-44b1-aebe-3a587e2c11db}, ! Handle
  Component Data 1,                       ! Name
  {0f63ba61-0ab3-4acd-a2ad-14bed5a312db}, ! UUID
  {6a988a71-3f92-4e81-b055-04e4c89cf01a}, ! Version UUID
  1366307929,                             ! Creation Timestamp
  1366307929,                             ! Version Timestamp
  {c61478ea-b75b-449f-b09c-077593ba9d76}; ! Name of Object 1

