
OS:Version,
  {791e339e-9236-4f10-80b9-66fb0f2aa321}, ! Handle
  0.9.3;                                  ! Version Identifier

OS:SizingPeriod:DesignDay,
  {306a9f5b-7979-41d7-89a0-30c5b6425a1c}, ! Handle
  SAINT_CLOUD Ann Htg Wind 99% Condns WS=>MCDB, ! Name
  -8.4,                                   ! Maximum Dry-Bulb Temperature {C}
  0,                                      ! Daily Dry-Bulb Temperature Range {deltaC}
  -8.4,                                   ! Humidity Indicating Conditions at Maximum Dry-Bulb {BasedOnField A3}
  97621,                                  ! Barometric Pressure {Pa}
  10.3,                                   ! Wind Speed {m/s}
  310,                                    ! Wind Direction {deg}
  0,                                      ! Sky Clearness
  0,                                      ! Rain Indicator
  0,                                      ! Snow Indicator
  21,                                     ! Day of Month
  1,                                      ! Month
  WinterDesignDay,                        ! Day Type
  0,                                      ! Daylight Saving Time Indicator
  Wetbulb,                                ! Humidity Indicating Type
  ,                                       ! Humidity Indicating Day Schedule Name
  DefaultMultipliers,                     ! Dry-Bulb Temperature Range Modifier Type
  ,                                       ! Dry-Bulb Temperature Range Modifier Schedule Name
  ASHRAEClearSky;                         ! Solar Model Indicator

OS:ComponentData,
  {6825d2a9-9073-48f8-b773-3505849f10d4}, ! Handle
  Component Data 1,                       ! Name
  {74137eb3-0527-4a2d-b8e0-ba84f65e1eb5}, ! UUID
  {70f6d134-0603-44ad-9a8e-8e196cfd246d}, ! Version UUID
  1366308409,                             ! Creation Timestamp
  1366308409,                             ! Version Timestamp
  {306a9f5b-7979-41d7-89a0-30c5b6425a1c}; ! Name of Object 1

