
OS:Version,
  {90a5d4b9-0c6b-49ae-9d63-cf7ef168cc02}, ! Handle
  0.9.3;                                  ! Version Identifier

OS:SizingPeriod:DesignDay,
  {e27d6094-6914-4b92-9ac9-2ee9b640d3fb}, ! Handle
  OLYMPIA Ann Htg 99% Condns DB,          ! Name
  -4.4,                                   ! Maximum Dry-Bulb Temperature {C}
  0,                                      ! Daily Dry-Bulb Temperature Range {deltaC}
  -4.4,                                   ! Humidity Indicating Conditions at Maximum Dry-Bulb {BasedOnField A3}
  100594,                                 ! Barometric Pressure {Pa}
  1.6,                                    ! Wind Speed {m/s}
  40,                                     ! Wind Direction {deg}
  0,                                      ! Sky Clearness
  0,                                      ! Rain Indicator
  0,                                      ! Snow Indicator
  21,                                     ! Day of Month
  12,                                     ! Month
  WinterDesignDay,                        ! Day Type
  0,                                      ! Daylight Saving Time Indicator
  Wetbulb,                                ! Humidity Indicating Type
  ,                                       ! Humidity Indicating Day Schedule Name
  DefaultMultipliers,                     ! Dry-Bulb Temperature Range Modifier Type
  ,                                       ! Dry-Bulb Temperature Range Modifier Schedule Name
  ASHRAEClearSky;                         ! Solar Model Indicator

OS:ComponentData,
  {83cb23cb-3e7b-45bb-8e56-b648a5dc788f}, ! Handle
  Component Data 1,                       ! Name
  {a31fd099-a68f-4b7d-878d-c74c067af41c}, ! UUID
  {ccc9b5ba-96e1-4231-8fae-009e5cdd8edf}, ! Version UUID
  1366311303,                             ! Creation Timestamp
  1366311303,                             ! Version Timestamp
  {e27d6094-6914-4b92-9ac9-2ee9b640d3fb}; ! Name of Object 1

