
OS:Version,
  {bda3da84-5051-46c0-bb59-c1a362e861dd}, ! Handle
  0.9.3;                                  ! Version Identifier

OS:SizingPeriod:DesignDay,
  {caa2824b-228b-4e97-b3b3-df8665043167}, ! Handle
  Yakutat Ann Htg 99.6% Condns DB,        ! Name
  -17.2,                                  ! Maximum Dry-Bulb Temperature {C}
  0,                                      ! Daily Dry-Bulb Temperature Range {deltaC}
  -17.2,                                  ! Humidity Indicating Conditions at Maximum Dry-Bulb {BasedOnField A3}
  101217,                                 ! Barometric Pressure {Pa}
  0.8,                                    ! Wind Speed {m/s}
  100,                                    ! Wind Direction {deg}
  0,                                      ! Sky Clearness
  0,                                      ! Rain Indicator
  0,                                      ! Snow Indicator
  21,                                     ! Day of Month
  1,                                      ! Month
  WinterDesignDay,                        ! Day Type
  0,                                      ! Daylight Saving Time Indicator
  Wetbulb,                                ! Humidity Indicating Type
  ,                                       ! Humidity Indicating Day Schedule Name
  DefaultMultipliers,                     ! Dry-Bulb Temperature Range Modifier Type
  ,                                       ! Dry-Bulb Temperature Range Modifier Schedule Name
  ASHRAEClearSky;                         ! Solar Model Indicator

OS:ComponentData,
  {25a27607-84cc-4713-a99f-323ecc744cd2}, ! Handle
  Component Data 1,                       ! Name
  {1ddf12b8-4676-427b-b365-8d8cdf983d37}, ! UUID
  {f2821f23-f474-45da-a45a-bb7f4ac3d1fc}, ! Version UUID
  1366305622,                             ! Creation Timestamp
  1366305622,                             ! Version Timestamp
  {caa2824b-228b-4e97-b3b3-df8665043167}; ! Name of Object 1

