
OS:Version,
  {f01a26fc-79db-450f-b137-fc1683ac27f2}, ! Handle
  0.9.3;                                  ! Version Identifier

OS:SizingPeriod:DesignDay,
  {c8b501ea-c323-453e-81f4-e15b9404f9c3}, ! Handle
  TOLEDO Ann Clg 2% Condns DB=>MWB,       ! Name
  29.8,                                   ! Maximum Dry-Bulb Temperature {C}
  11.5,                                   ! Daily Dry-Bulb Temperature Range {deltaC}
  21.9,                                   ! Humidity Indicating Conditions at Maximum Dry-Bulb {BasedOnField A3}
  98816,                                  ! Barometric Pressure {Pa}
  4.8,                                    ! Wind Speed {m/s}
  230,                                    ! Wind Direction {deg}
  0,                                      ! Sky Clearness
  0,                                      ! Rain Indicator
  0,                                      ! Snow Indicator
  21,                                     ! Day of Month
  7,                                      ! Month
  SummerDesignDay,                        ! Day Type
  0,                                      ! Daylight Saving Time Indicator
  Wetbulb,                                ! Humidity Indicating Type
  ,                                       ! Humidity Indicating Day Schedule Name
  DefaultMultipliers,                     ! Dry-Bulb Temperature Range Modifier Type
  ,                                       ! Dry-Bulb Temperature Range Modifier Schedule Name
  ASHRAETau,                              ! Solar Model Indicator
  ,                                       ! Beam Solar Day Schedule Name
  ,                                       ! Diffuse Solar Day Schedule Name
  0.45,                                   ! ASHRAE Taub {dimensionless}
  2.065;                                  ! ASHRAE Taud {dimensionless}

OS:ComponentData,
  {b8b4e18f-dfe0-4304-8f35-a85e33a8d997}, ! Handle
  Component Data 1,                       ! Name
  {28fd2e60-0fb6-450e-90b5-f05d6d96fc5b}, ! UUID
  {b0abae4a-b670-4b32-9255-d3252d910f2b}, ! Version UUID
  1366309846,                             ! Creation Timestamp
  1366309846,                             ! Version Timestamp
  {c8b501ea-c323-453e-81f4-e15b9404f9c3}; ! Name of Object 1

