
OS:Version,
  {65964351-d3ba-4c39-bbe0-95db462cb614}, ! Handle
  0.9.3;                                  ! Version Identifier

OS:SizingPeriod:DesignDay,
  {79d1ad62-250d-472c-a97a-e2cea0d27e38}, ! Handle
  Tucson Ann Clg 1% Condns DB=>MWB,       ! Name
  39.8,                                   ! Maximum Dry-Bulb Temperature {C}
  13.8,                                   ! Daily Dry-Bulb Temperature Range {deltaC}
  18.9,                                   ! Humidity Indicating Conditions at Maximum Dry-Bulb {BasedOnField A3}
  92310,                                  ! Barometric Pressure {Pa}
  5,                                      ! Wind Speed {m/s}
  300,                                    ! Wind Direction {deg}
  0,                                      ! Sky Clearness
  0,                                      ! Rain Indicator
  0,                                      ! Snow Indicator
  21,                                     ! Day of Month
  7,                                      ! Month
  SummerDesignDay,                        ! Day Type
  0,                                      ! Daylight Saving Time Indicator
  Wetbulb,                                ! Humidity Indicating Type
  ,                                       ! Humidity Indicating Day Schedule Name
  DefaultMultipliers,                     ! Dry-Bulb Temperature Range Modifier Type
  ,                                       ! Dry-Bulb Temperature Range Modifier Schedule Name
  ASHRAETau,                              ! Solar Model Indicator
  ,                                       ! Beam Solar Day Schedule Name
  ,                                       ! Diffuse Solar Day Schedule Name
  0.555,                                  ! ASHRAE Taub {dimensionless}
  1.73;                                   ! ASHRAE Taud {dimensionless}

OS:ComponentData,
  {65701dd8-7b6d-45c1-a35f-91edf0e689f1}, ! Handle
  Component Data 1,                       ! Name
  {ae430d2a-5411-4bca-bf33-7bcf446f47ed}, ! UUID
  {7af2910b-bd54-46f6-9c09-a32f02a10cfc}, ! Version UUID
  1366306321,                             ! Creation Timestamp
  1366306321,                             ! Version Timestamp
  {79d1ad62-250d-472c-a97a-e2cea0d27e38}; ! Name of Object 1

