
OS:Version,
  {56a6c446-67ff-4687-9a5a-14177ec90879}, ! Handle
  0.9.3;                                  ! Version Identifier

OS:SizingPeriod:DesignDay,
  {7951866d-5e95-4089-be87-2dca3fa7eb4f}, ! Handle
  Redmond Roberts Field Ann Clg 2% Condns DP=>MDB, ! Name
  19.4,                                   ! Maximum Dry-Bulb Temperature {C}
  20,                                     ! Daily Dry-Bulb Temperature Range {deltaC}
  10.7,                                   ! Humidity Indicating Conditions at Maximum Dry-Bulb {BasedOnField A3}
  90607,                                  ! Barometric Pressure {Pa}
  4.7,                                    ! Wind Speed {m/s}
  350,                                    ! Wind Direction {deg}
  0,                                      ! Sky Clearness
  0,                                      ! Rain Indicator
  0,                                      ! Snow Indicator
  21,                                     ! Day of Month
  7,                                      ! Month
  SummerDesignDay,                        ! Day Type
  0,                                      ! Daylight Saving Time Indicator
  Dewpoint,                               ! Humidity Indicating Type
  ,                                       ! Humidity Indicating Day Schedule Name
  DefaultMultipliers,                     ! Dry-Bulb Temperature Range Modifier Type
  ,                                       ! Dry-Bulb Temperature Range Modifier Schedule Name
  ASHRAETau,                              ! Solar Model Indicator
  ,                                       ! Beam Solar Day Schedule Name
  ,                                       ! Diffuse Solar Day Schedule Name
  0.355,                                  ! ASHRAE Taub {dimensionless}
  2.422;                                  ! ASHRAE Taud {dimensionless}

OS:ComponentData,
  {1f8857ff-8b77-485b-8a15-1d11eb613bd5}, ! Handle
  Component Data 1,                       ! Name
  {f108e618-522b-467d-804a-1c009c522b3a}, ! UUID
  {72f94a93-3c44-45ad-8135-82ec061d8373}, ! Version UUID
  1366310098,                             ! Creation Timestamp
  1366310098,                             ! Version Timestamp
  {7951866d-5e95-4089-be87-2dca3fa7eb4f}; ! Name of Object 1

