
OS:Version,
  {63be4c4e-be24-4fa1-ab6d-0981abf414d8}, ! Handle
  0.9.3;                                  ! Version Identifier

OS:SizingPeriod:DesignDay,
  {0552cacc-df9a-4fcf-b130-215a77d264d8}, ! Handle
  Presque Isle Municip Ann Clg .4% Condns Enth=>MDB, ! Name
  26.6,                                   ! Maximum Dry-Bulb Temperature {C}
  11.7,                                   ! Daily Dry-Bulb Temperature Range {deltaC}
  63100,                                  ! Humidity Indicating Conditions at Maximum Dry-Bulb {BasedOnField A3}
  99382,                                  ! Barometric Pressure {Pa}
  4.5,                                    ! Wind Speed {m/s}
  270,                                    ! Wind Direction {deg}
  0,                                      ! Sky Clearness
  0,                                      ! Rain Indicator
  0,                                      ! Snow Indicator
  21,                                     ! Day of Month
  7,                                      ! Month
  SummerDesignDay,                        ! Day Type
  0,                                      ! Daylight Saving Time Indicator
  Enthalpy,                               ! Humidity Indicating Type
  ,                                       ! Humidity Indicating Day Schedule Name
  DefaultMultipliers,                     ! Dry-Bulb Temperature Range Modifier Type
  ,                                       ! Dry-Bulb Temperature Range Modifier Schedule Name
  ASHRAETau,                              ! Solar Model Indicator
  ,                                       ! Beam Solar Day Schedule Name
  ,                                       ! Diffuse Solar Day Schedule Name
  0.432,                                  ! ASHRAE Taub {dimensionless}
  2.1;                                    ! ASHRAE Taud {dimensionless}

OS:ComponentData,
  {1883ddd3-6076-4d91-a982-ac8b6dd01397}, ! Handle
  Component Data 1,                       ! Name
  {6a0194da-1949-455f-adf1-82ac3b20c657}, ! UUID
  {97520f6d-bdb1-4fb1-85f1-ff0e6011fba0}, ! Version UUID
  1366307919,                             ! Creation Timestamp
  1366307919,                             ! Version Timestamp
  {0552cacc-df9a-4fcf-b130-215a77d264d8}; ! Name of Object 1

