
OS:Version,
  {0da9b179-5019-4a78-9b49-0efc4dfc0b09}, ! Handle
  0.9.3;                                  ! Version Identifier

OS:SizingPeriod:DesignDay,
  {99889012-8b7f-4d48-a318-729e7bd0932b}, ! Handle
  Mount Shasta Ann Clg 2% Condns DB=>MWB, ! Name
  29.3,                                   ! Maximum Dry-Bulb Temperature {C}
  17,                                     ! Daily Dry-Bulb Temperature Range {deltaC}
  15.8,                                   ! Humidity Indicating Conditions at Maximum Dry-Bulb {BasedOnField A3}
  89038,                                  ! Barometric Pressure {Pa}
  1.7,                                    ! Wind Speed {m/s}
  180,                                    ! Wind Direction {deg}
  0,                                      ! Sky Clearness
  0,                                      ! Rain Indicator
  0,                                      ! Snow Indicator
  21,                                     ! Day of Month
  7,                                      ! Month
  SummerDesignDay,                        ! Day Type
  0,                                      ! Daylight Saving Time Indicator
  Wetbulb,                                ! Humidity Indicating Type
  ,                                       ! Humidity Indicating Day Schedule Name
  DefaultMultipliers,                     ! Dry-Bulb Temperature Range Modifier Type
  ,                                       ! Dry-Bulb Temperature Range Modifier Schedule Name
  ASHRAETau,                              ! Solar Model Indicator
  ,                                       ! Beam Solar Day Schedule Name
  ,                                       ! Diffuse Solar Day Schedule Name
  0.334,                                  ! ASHRAE Taub {dimensionless}
  2.582;                                  ! ASHRAE Taud {dimensionless}

OS:ComponentData,
  {179e1aec-f961-4d53-a171-eda51ddf1c32}, ! Handle
  Component Data 1,                       ! Name
  {44e340fc-07d3-4593-9426-ceb5e622058a}, ! UUID
  {34c40da2-08f7-4448-a90c-f1c11da7800b}, ! Version UUID
  1366306502,                             ! Creation Timestamp
  1366306502,                             ! Version Timestamp
  {99889012-8b7f-4d48-a318-729e7bd0932b}; ! Name of Object 1

