
OS:Version,
  {c1280191-b323-4931-a6fd-a9a127bc3109}, ! Handle
  0.9.3;                                  ! Version Identifier

OS:SizingPeriod:DesignDay,
  {112194ef-e3c3-4c96-acbc-38b03ec45aa2}, ! Handle
  NEWARK Ann Htg 99.6% Condns DB,         ! Name
  -11.6,                                  ! Maximum Dry-Bulb Temperature {C}
  0,                                      ! Daily Dry-Bulb Temperature Range {deltaC}
  -11.6,                                  ! Humidity Indicating Conditions at Maximum Dry-Bulb {BasedOnField A3}
  101217,                                 ! Barometric Pressure {Pa}
  6.2,                                    ! Wind Speed {m/s}
  320,                                    ! Wind Direction {deg}
  0,                                      ! Sky Clearness
  0,                                      ! Rain Indicator
  0,                                      ! Snow Indicator
  21,                                     ! Day of Month
  1,                                      ! Month
  WinterDesignDay,                        ! Day Type
  0,                                      ! Daylight Saving Time Indicator
  Wetbulb,                                ! Humidity Indicating Type
  ,                                       ! Humidity Indicating Day Schedule Name
  DefaultMultipliers,                     ! Dry-Bulb Temperature Range Modifier Type
  ,                                       ! Dry-Bulb Temperature Range Modifier Schedule Name
  ASHRAEClearSky;                         ! Solar Model Indicator

OS:ComponentData,
  {2bc32431-dbf7-4cc1-baff-b6286632a5f4}, ! Handle
  Component Data 1,                       ! Name
  {2a8944a1-3d10-4c12-aff0-b2173bfe4319}, ! UUID
  {5b28a36e-6422-4efb-8fd6-8df5d0fab1b2}, ! Version UUID
  1366309326,                             ! Creation Timestamp
  1366309326,                             ! Version Timestamp
  {112194ef-e3c3-4c96-acbc-38b03ec45aa2}; ! Name of Object 1

