
OS:Version,
  {8015af9d-9511-4ef0-9d4c-58ef49ace9c5}, ! Handle
  0.9.3;                                  ! Version Identifier

OS:SizingPeriod:DesignDay,
  {7462d5ae-c7a2-469f-af40-986c9e62772c}, ! Handle
  Omaha Wsfo Ann Clg 1% Condns Enth=>MDB, ! Name
  30.5,                                   ! Maximum Dry-Bulb Temperature {C}
  9.7,                                    ! Daily Dry-Bulb Temperature Range {deltaC}
  75800,                                  ! Humidity Indicating Conditions at Maximum Dry-Bulb {BasedOnField A3}
  96623,                                  ! Barometric Pressure {Pa}
  4.7,                                    ! Wind Speed {m/s}
  170,                                    ! Wind Direction {deg}
  0,                                      ! Sky Clearness
  0,                                      ! Rain Indicator
  0,                                      ! Snow Indicator
  21,                                     ! Day of Month
  7,                                      ! Month
  SummerDesignDay,                        ! Day Type
  0,                                      ! Daylight Saving Time Indicator
  Enthalpy,                               ! Humidity Indicating Type
  ,                                       ! Humidity Indicating Day Schedule Name
  DefaultMultipliers,                     ! Dry-Bulb Temperature Range Modifier Type
  ,                                       ! Dry-Bulb Temperature Range Modifier Schedule Name
  ASHRAETau,                              ! Solar Model Indicator
  ,                                       ! Beam Solar Day Schedule Name
  ,                                       ! Diffuse Solar Day Schedule Name
  0.414,                                  ! ASHRAE Taub {dimensionless}
  2.216;                                  ! ASHRAE Taud {dimensionless}

OS:ComponentData,
  {a11cd948-6c82-45a8-9e9c-ca721fae1ce1}, ! Handle
  Component Data 1,                       ! Name
  {9bb778f7-095a-4faf-af7d-5027a947c1c3}, ! UUID
  {3d5f87f3-419f-4897-bf5e-8f8bbd421841}, ! Version UUID
  1366309182,                             ! Creation Timestamp
  1366309182,                             ! Version Timestamp
  {7462d5ae-c7a2-469f-af40-986c9e62772c}; ! Name of Object 1

