
OS:Version,
  {656b5593-62e1-458a-9f91-d0f528f3618e}, ! Handle
  0.9.3;                                  ! Version Identifier

OS:SizingPeriod:DesignDay,
  {dd5faf52-4500-4f6c-9200-c5b4a915eb50}, ! Handle
  Utica Oneida County Ap Ann Clg 2% Condns WB=>MDB, ! Name
  25.9,                                   ! Maximum Dry-Bulb Temperature {C}
  10.7,                                   ! Daily Dry-Bulb Temperature Range {deltaC}
  21.9,                                   ! Humidity Indicating Conditions at Maximum Dry-Bulb {BasedOnField A3}
  98745,                                  ! Barometric Pressure {Pa}
  3.9,                                    ! Wind Speed {m/s}
  280,                                    ! Wind Direction {deg}
  0,                                      ! Sky Clearness
  0,                                      ! Rain Indicator
  0,                                      ! Snow Indicator
  21,                                     ! Day of Month
  7,                                      ! Month
  SummerDesignDay,                        ! Day Type
  0,                                      ! Daylight Saving Time Indicator
  Wetbulb,                                ! Humidity Indicating Type
  ,                                       ! Humidity Indicating Day Schedule Name
  DefaultMultipliers,                     ! Dry-Bulb Temperature Range Modifier Type
  ,                                       ! Dry-Bulb Temperature Range Modifier Schedule Name
  ASHRAETau,                              ! Solar Model Indicator
  ,                                       ! Beam Solar Day Schedule Name
  ,                                       ! Diffuse Solar Day Schedule Name
  0.461,                                  ! ASHRAE Taub {dimensionless}
  1.999;                                  ! ASHRAE Taud {dimensionless}

OS:ComponentData,
  {b4af9c95-88e5-4299-a068-cac1934ac1ef}, ! Handle
  Component Data 1,                       ! Name
  {09056986-ce5a-49c1-8b44-29b680469451}, ! UUID
  {b3cac1cc-2027-4421-aa5e-0cd6e0b31377}, ! Version UUID
  1366309745,                             ! Creation Timestamp
  1366309745,                             ! Version Timestamp
  {dd5faf52-4500-4f6c-9200-c5b4a915eb50}; ! Name of Object 1

