
OS:Version,
  {c1952282-da26-45b6-ada7-2ed9f88f82f5}, ! Handle
  0.9.3;                                  ! Version Identifier

OS:SizingPeriod:DesignDay,
  {af6d16a1-6c9a-4b5c-89fa-05312f461c14}, ! Handle
  Manitowac Muni Awos Ann Clg 1% Condns WB=>MDB, ! Name
  26.3,                                   ! Maximum Dry-Bulb Temperature {C}
  9.4,                                    ! Daily Dry-Bulb Temperature Range {deltaC}
  22.3,                                   ! Humidity Indicating Conditions at Maximum Dry-Bulb {BasedOnField A3}
  98969,                                  ! Barometric Pressure {Pa}
  5,                                      ! Wind Speed {m/s}
  250,                                    ! Wind Direction {deg}
  0,                                      ! Sky Clearness
  0,                                      ! Rain Indicator
  0,                                      ! Snow Indicator
  21,                                     ! Day of Month
  7,                                      ! Month
  SummerDesignDay,                        ! Day Type
  0,                                      ! Daylight Saving Time Indicator
  Wetbulb,                                ! Humidity Indicating Type
  ,                                       ! Humidity Indicating Day Schedule Name
  DefaultMultipliers,                     ! Dry-Bulb Temperature Range Modifier Type
  ,                                       ! Dry-Bulb Temperature Range Modifier Schedule Name
  ASHRAETau,                              ! Solar Model Indicator
  ,                                       ! Beam Solar Day Schedule Name
  ,                                       ! Diffuse Solar Day Schedule Name
  0.438,                                  ! ASHRAE Taub {dimensionless}
  2.104;                                  ! ASHRAE Taud {dimensionless}

OS:ComponentData,
  {4d04ee38-0c95-474a-9c61-f6fffdefbc42}, ! Handle
  Component Data 1,                       ! Name
  {1217ce69-e44c-49c9-b848-d5dfb9e56adb}, ! UUID
  {245243d9-e2ff-4f0e-b76a-d3322313915b}, ! Version UUID
  1366311537,                             ! Creation Timestamp
  1366311537,                             ! Version Timestamp
  {af6d16a1-6c9a-4b5c-89fa-05312f461c14}; ! Name of Object 1

