
OS:Version,
  {607cab3c-566e-423f-bffb-b0fcfa85ce86}, ! Handle
  0.9.3;                                  ! Version Identifier

OS:SizingPeriod:DesignDay,
  {aec7c2cc-28d7-4b3d-9ebc-dd301956aea3}, ! Handle
  Worchester Regional Arpt Ann Htg 99.6% Condns DB, ! Name
  -16.9,                                  ! Maximum Dry-Bulb Temperature {C}
  0,                                      ! Daily Dry-Bulb Temperature Range {deltaC}
  -16.9,                                  ! Humidity Indicating Conditions at Maximum Dry-Bulb {BasedOnField A3}
  97773,                                  ! Barometric Pressure {Pa}
  6,                                      ! Wind Speed {m/s}
  280,                                    ! Wind Direction {deg}
  0,                                      ! Sky Clearness
  0,                                      ! Rain Indicator
  0,                                      ! Snow Indicator
  21,                                     ! Day of Month
  1,                                      ! Month
  WinterDesignDay,                        ! Day Type
  0,                                      ! Daylight Saving Time Indicator
  Wetbulb,                                ! Humidity Indicating Type
  ,                                       ! Humidity Indicating Day Schedule Name
  DefaultMultipliers,                     ! Dry-Bulb Temperature Range Modifier Type
  ,                                       ! Dry-Bulb Temperature Range Modifier Schedule Name
  ASHRAEClearSky;                         ! Solar Model Indicator

OS:ComponentData,
  {946803ee-809f-4b12-a9d4-93db5290858f}, ! Handle
  Component Data 1,                       ! Name
  {fafab2e1-c446-4eda-91c3-a1331bf010ad}, ! UUID
  {d417190a-18fb-4f3e-a82a-ed721676f4e7}, ! Version UUID
  1366307830,                             ! Creation Timestamp
  1366307830,                             ! Version Timestamp
  {aec7c2cc-28d7-4b3d-9ebc-dd301956aea3}; ! Name of Object 1

