
OS:Version,
  {d26d3fb1-8319-4769-8f5c-2b9dee5c2159}, ! Handle
  0.9.3;                                  ! Version Identifier

OS:SizingPeriod:DesignDay,
  {21dfb95c-aa50-4b9e-95af-be4ce63626d9}, ! Handle
  Tucson International Ap Ann Clg 2% Condns DP=>MDB, ! Name
  25.3,                                   ! Maximum Dry-Bulb Temperature {C}
  13.8,                                   ! Daily Dry-Bulb Temperature Range {deltaC}
  19.1,                                   ! Humidity Indicating Conditions at Maximum Dry-Bulb {BasedOnField A3}
  92332,                                  ! Barometric Pressure {Pa}
  5,                                      ! Wind Speed {m/s}
  300,                                    ! Wind Direction {deg}
  0,                                      ! Sky Clearness
  0,                                      ! Rain Indicator
  0,                                      ! Snow Indicator
  21,                                     ! Day of Month
  7,                                      ! Month
  SummerDesignDay,                        ! Day Type
  0,                                      ! Daylight Saving Time Indicator
  Dewpoint,                               ! Humidity Indicating Type
  ,                                       ! Humidity Indicating Day Schedule Name
  DefaultMultipliers,                     ! Dry-Bulb Temperature Range Modifier Type
  ,                                       ! Dry-Bulb Temperature Range Modifier Schedule Name
  ASHRAETau,                              ! Solar Model Indicator
  ,                                       ! Beam Solar Day Schedule Name
  ,                                       ! Diffuse Solar Day Schedule Name
  0.555,                                  ! ASHRAE Taub {dimensionless}
  1.73;                                   ! ASHRAE Taud {dimensionless}

OS:ComponentData,
  {90e35b25-691c-47f9-b04e-37aea9a1ccaf}, ! Handle
  Component Data 1,                       ! Name
  {f7dffb2c-bf91-44a7-a195-0354d83d3868}, ! UUID
  {d7c18053-b80d-4f0b-b7d4-e6903771c46b}, ! Version UUID
  1366306326,                             ! Creation Timestamp
  1366306326,                             ! Version Timestamp
  {21dfb95c-aa50-4b9e-95af-be4ce63626d9}; ! Name of Object 1

