
OS:Version,
  {d5d4c7cc-5b21-4948-9363-f5ee2656de70}, ! Handle
  0.9.3;                                  ! Version Identifier

OS:SizingPeriod:DesignDay,
  {c156ee2f-bade-4898-a006-f516d06c161d}, ! Handle
  Newark International Arpt Ann Htg Wind 99.6% Condns WS=>MCDB, ! Name
  -1.2,                                   ! Maximum Dry-Bulb Temperature {C}
  0,                                      ! Daily Dry-Bulb Temperature Range {deltaC}
  -1.2,                                   ! Humidity Indicating Conditions at Maximum Dry-Bulb {BasedOnField A3}
  101289,                                 ! Barometric Pressure {Pa}
  12.7,                                   ! Wind Speed {m/s}
  320,                                    ! Wind Direction {deg}
  0,                                      ! Sky Clearness
  0,                                      ! Rain Indicator
  0,                                      ! Snow Indicator
  21,                                     ! Day of Month
  1,                                      ! Month
  WinterDesignDay,                        ! Day Type
  0,                                      ! Daylight Saving Time Indicator
  Wetbulb,                                ! Humidity Indicating Type
  ,                                       ! Humidity Indicating Day Schedule Name
  DefaultMultipliers,                     ! Dry-Bulb Temperature Range Modifier Type
  ,                                       ! Dry-Bulb Temperature Range Modifier Schedule Name
  ASHRAEClearSky;                         ! Solar Model Indicator

OS:ComponentData,
  {91bc2547-9dcd-480b-af6e-bedfa480fe52}, ! Handle
  Component Data 1,                       ! Name
  {e61beae4-339e-4f30-8a19-2f6827b4d2c2}, ! UUID
  {07b6f198-7ff2-4534-9a28-1774a8a81891}, ! Version UUID
  1366309338,                             ! Creation Timestamp
  1366309338,                             ! Version Timestamp
  {c156ee2f-bade-4898-a006-f516d06c161d}; ! Name of Object 1

