
OS:Version,
  {fe3873d8-5092-437c-a2bb-6b8b2e60a695}, ! Handle
  0.9.3;                                  ! Version Identifier

OS:SizingPeriod:DesignDay,
  {9d7dbc35-2f8f-4401-95ee-f189a208be9f}, ! Handle
  West Palm Beach Intl Arpt Ann Clg 2% Condns DB=>MWB, ! Name
  31.8,                                   ! Maximum Dry-Bulb Temperature {C}
  7.3,                                    ! Daily Dry-Bulb Temperature Range {deltaC}
  25.4,                                   ! Humidity Indicating Conditions at Maximum Dry-Bulb {BasedOnField A3}
  101253,                                 ! Barometric Pressure {Pa}
  5.2,                                    ! Wind Speed {m/s}
  130,                                    ! Wind Direction {deg}
  0,                                      ! Sky Clearness
  0,                                      ! Rain Indicator
  0,                                      ! Snow Indicator
  21,                                     ! Day of Month
  8,                                      ! Month
  SummerDesignDay,                        ! Day Type
  0,                                      ! Daylight Saving Time Indicator
  Wetbulb,                                ! Humidity Indicating Type
  ,                                       ! Humidity Indicating Day Schedule Name
  DefaultMultipliers,                     ! Dry-Bulb Temperature Range Modifier Type
  ,                                       ! Dry-Bulb Temperature Range Modifier Schedule Name
  ASHRAETau,                              ! Solar Model Indicator
  ,                                       ! Beam Solar Day Schedule Name
  ,                                       ! Diffuse Solar Day Schedule Name
  0.497,                                  ! ASHRAE Taub {dimensionless}
  2.018;                                  ! ASHRAE Taud {dimensionless}

OS:ComponentData,
  {65a3cfd4-beed-49f4-bb60-bda6d55d4a7a}, ! Handle
  Component Data 1,                       ! Name
  {a739c6b7-8181-458c-acb2-75be70ac4914}, ! UUID
  {864408af-b72f-42db-a152-3a3087a41d27}, ! Version UUID
  1366306955,                             ! Creation Timestamp
  1366306955,                             ! Version Timestamp
  {9d7dbc35-2f8f-4401-95ee-f189a208be9f}; ! Name of Object 1

