
OS:Version,
  {3c56fdcb-34a1-47a5-9fa2-f5b12f2a895e}, ! Handle
  0.9.3;                                  ! Version Identifier

OS:SizingPeriod:DesignDay,
  {37b9071a-a741-4991-9b2a-7d53dc17b097}, ! Handle
  Medford Ann Clg 2% Condns Enth=>MDB,    ! Name
  31.4,                                   ! Maximum Dry-Bulb Temperature {C}
  17.9,                                   ! Daily Dry-Bulb Temperature Range {deltaC}
  54700,                                  ! Humidity Indicating Conditions at Maximum Dry-Bulb {BasedOnField A3}
  96553,                                  ! Barometric Pressure {Pa}
  3.9,                                    ! Wind Speed {m/s}
  290,                                    ! Wind Direction {deg}
  0,                                      ! Sky Clearness
  0,                                      ! Rain Indicator
  0,                                      ! Snow Indicator
  21,                                     ! Day of Month
  7,                                      ! Month
  SummerDesignDay,                        ! Day Type
  0,                                      ! Daylight Saving Time Indicator
  Enthalpy,                               ! Humidity Indicating Type
  ,                                       ! Humidity Indicating Day Schedule Name
  DefaultMultipliers,                     ! Dry-Bulb Temperature Range Modifier Type
  ,                                       ! Dry-Bulb Temperature Range Modifier Schedule Name
  ASHRAETau,                              ! Solar Model Indicator
  ,                                       ! Beam Solar Day Schedule Name
  ,                                       ! Diffuse Solar Day Schedule Name
  0.356,                                  ! ASHRAE Taub {dimensionless}
  2.582;                                  ! ASHRAE Taud {dimensionless}

