
OS:Version,
  {99264659-6eb3-405b-8fc7-14903bf8e4fb}, ! Handle
  0.9.3;                                  ! Version Identifier

OS:SizingPeriod:DesignDay,
  {da87fe1a-db4f-4c61-a746-47da8dd44c48}, ! Handle
  Rochester Ann Clg 1% Condns Enth=>MDB,  ! Name
  27.7,                                   ! Maximum Dry-Bulb Temperature {C}
  10.6,                                   ! Daily Dry-Bulb Temperature Range {deltaC}
  72800,                                  ! Humidity Indicating Conditions at Maximum Dry-Bulb {BasedOnField A3}
  96588,                                  ! Barometric Pressure {Pa}
  6.7,                                    ! Wind Speed {m/s}
  200,                                    ! Wind Direction {deg}
  0,                                      ! Sky Clearness
  0,                                      ! Rain Indicator
  0,                                      ! Snow Indicator
  21,                                     ! Day of Month
  7,                                      ! Month
  SummerDesignDay,                        ! Day Type
  0,                                      ! Daylight Saving Time Indicator
  Enthalpy,                               ! Humidity Indicating Type
  ,                                       ! Humidity Indicating Day Schedule Name
  DefaultMultipliers,                     ! Dry-Bulb Temperature Range Modifier Type
  ,                                       ! Dry-Bulb Temperature Range Modifier Schedule Name
  ASHRAETau,                              ! Solar Model Indicator
  ,                                       ! Beam Solar Day Schedule Name
  ,                                       ! Diffuse Solar Day Schedule Name
  0.404,                                  ! ASHRAE Taub {dimensionless}
  2.226;                                  ! ASHRAE Taud {dimensionless}

OS:ComponentData,
  {b5c7fe2c-f72e-4c86-a123-0b6d878ec4b3}, ! Handle
  Component Data 1,                       ! Name
  {e20b203b-874d-4033-9eca-a8aa145d650f}, ! UUID
  {84d090c4-42c4-4c34-b82b-3e3ac3d91550}, ! Version UUID
  1366308394,                             ! Creation Timestamp
  1366308394,                             ! Version Timestamp
  {da87fe1a-db4f-4c61-a746-47da8dd44c48}; ! Name of Object 1

