
OS:Version,
  {33d82696-a9dd-40cc-9f9d-e1fd7dd3725f}, ! Handle
  0.9.3;                                  ! Version Identifier

OS:SizingPeriod:DesignDay,
  {4fd6004c-9da1-48e8-9c88-9b3efc08a963}, ! Handle
  Richmond Ann Clg .4% Condns WB=>MDB,    ! Name
  31.9,                                   ! Maximum Dry-Bulb Temperature {C}
  10.4,                                   ! Daily Dry-Bulb Temperature Range {deltaC}
  25.9,                                   ! Humidity Indicating Conditions at Maximum Dry-Bulb {BasedOnField A3}
  100678,                                 ! Barometric Pressure {Pa}
  4.5,                                    ! Wind Speed {m/s}
  230,                                    ! Wind Direction {deg}
  0,                                      ! Sky Clearness
  0,                                      ! Rain Indicator
  0,                                      ! Snow Indicator
  21,                                     ! Day of Month
  7,                                      ! Month
  SummerDesignDay,                        ! Day Type
  0,                                      ! Daylight Saving Time Indicator
  Wetbulb,                                ! Humidity Indicating Type
  ,                                       ! Humidity Indicating Day Schedule Name
  DefaultMultipliers,                     ! Dry-Bulb Temperature Range Modifier Type
  ,                                       ! Dry-Bulb Temperature Range Modifier Schedule Name
  ASHRAETau,                              ! Solar Model Indicator
  ,                                       ! Beam Solar Day Schedule Name
  ,                                       ! Diffuse Solar Day Schedule Name
  0.567,                                  ! ASHRAE Taub {dimensionless}
  1.742;                                  ! ASHRAE Taud {dimensionless}

OS:ComponentData,
  {6a9d6a2b-dfe2-40da-85a9-8bdf64cf80ec}, ! Handle
  Component Data 1,                       ! Name
  {d57021a0-31b6-43f9-94e9-0190639f8db2}, ! UUID
  {721d0460-63ca-48e8-a998-40436550f9b4}, ! Version UUID
  1366311169,                             ! Creation Timestamp
  1366311169,                             ! Version Timestamp
  {4fd6004c-9da1-48e8-9c88-9b3efc08a963}; ! Name of Object 1

