
OS:Version,
  {1fe4aec0-8347-4e36-9b17-5261217ca181}, ! Handle
  0.9.3;                                  ! Version Identifier

OS:SizingPeriod:DesignDay,
  {a55b5275-ab5d-4c43-910b-01387c1ef596}, ! Handle
  North Platte Regional Ap Ann Clg 2% Condns DB=>MWB, ! Name
  32.1,                                   ! Maximum Dry-Bulb Temperature {C}
  14.5,                                   ! Daily Dry-Bulb Temperature Range {deltaC}
  20.6,                                   ! Humidity Indicating Conditions at Maximum Dry-Bulb {BasedOnField A3}
  91555,                                  ! Barometric Pressure {Pa}
  5.5,                                    ! Wind Speed {m/s}
  180,                                    ! Wind Direction {deg}
  0,                                      ! Sky Clearness
  0,                                      ! Rain Indicator
  0,                                      ! Snow Indicator
  21,                                     ! Day of Month
  7,                                      ! Month
  SummerDesignDay,                        ! Day Type
  0,                                      ! Daylight Saving Time Indicator
  Wetbulb,                                ! Humidity Indicating Type
  ,                                       ! Humidity Indicating Day Schedule Name
  DefaultMultipliers,                     ! Dry-Bulb Temperature Range Modifier Type
  ,                                       ! Dry-Bulb Temperature Range Modifier Schedule Name
  ASHRAETau,                              ! Solar Model Indicator
  ,                                       ! Beam Solar Day Schedule Name
  ,                                       ! Diffuse Solar Day Schedule Name
  0.417,                                  ! ASHRAE Taub {dimensionless}
  2.141;                                  ! ASHRAE Taud {dimensionless}

OS:ComponentData,
  {33c8aee9-7768-42a2-8c48-b375ec3eb02d}, ! Handle
  Component Data 1,                       ! Name
  {0fdc9984-7562-4ca8-a0e4-c62d0620065e}, ! UUID
  {1f060332-2eea-406b-bc39-88e387283f72}, ! Version UUID
  1366309165,                             ! Creation Timestamp
  1366309165,                             ! Version Timestamp
  {a55b5275-ab5d-4c43-910b-01387c1ef596}; ! Name of Object 1

