
OS:Version,
  {5be02fdb-830c-4257-a545-e03dd3e54960}, ! Handle
  0.9.3;                                  ! Version Identifier

OS:SizingPeriod:DesignDay,
  {ee6a4104-f13e-4a77-8d16-fe5d6171977d}, ! Handle
  Mercury Desert Rock Ap  Surfr Ann Clg 2% Condns WB=>MDB, ! Name
  32.9,                                   ! Maximum Dry-Bulb Temperature {C}
  14.8,                                   ! Daily Dry-Bulb Temperature Range {deltaC}
  19.1,                                   ! Humidity Indicating Conditions at Maximum Dry-Bulb {BasedOnField A3}
  90585,                                  ! Barometric Pressure {Pa}
  5.5,                                    ! Wind Speed {m/s}
  230,                                    ! Wind Direction {deg}
  0,                                      ! Sky Clearness
  0,                                      ! Rain Indicator
  0,                                      ! Snow Indicator
  21,                                     ! Day of Month
  7,                                      ! Month
  SummerDesignDay,                        ! Day Type
  0,                                      ! Daylight Saving Time Indicator
  Wetbulb,                                ! Humidity Indicating Type
  ,                                       ! Humidity Indicating Day Schedule Name
  DefaultMultipliers,                     ! Dry-Bulb Temperature Range Modifier Type
  ,                                       ! Dry-Bulb Temperature Range Modifier Schedule Name
  ASHRAETau,                              ! Solar Model Indicator
  ,                                       ! Beam Solar Day Schedule Name
  ,                                       ! Diffuse Solar Day Schedule Name
  0.507,                                  ! ASHRAE Taub {dimensionless}
  1.746;                                  ! ASHRAE Taud {dimensionless}

OS:ComponentData,
  {cf65c5a7-a248-4fc6-b02f-8f434227e4ad}, ! Handle
  Component Data 1,                       ! Name
  {7eb13410-1db5-4da2-beb9-4e8090833ea3}, ! UUID
  {176be1a6-c660-42fb-8734-23823e5ea7d9}, ! Version UUID
  1366309522,                             ! Creation Timestamp
  1366309522,                             ! Version Timestamp
  {ee6a4104-f13e-4a77-8d16-fe5d6171977d}; ! Name of Object 1

