
OS:Version,
  {fcfc7e62-e1a6-4751-8e1c-cca2b5f4e8aa}, ! Handle
  0.9.3;                                  ! Version Identifier

OS:SizingPeriod:DesignDay,
  {3750eff3-b8d3-4b76-af23-ae906ca5f0f1}, ! Handle
  Tucson Ann Clg 2% Condns WB=>MDB,       ! Name
  31,                                     ! Maximum Dry-Bulb Temperature {C}
  13.8,                                   ! Daily Dry-Bulb Temperature Range {deltaC}
  21.7,                                   ! Humidity Indicating Conditions at Maximum Dry-Bulb {BasedOnField A3}
  92310,                                  ! Barometric Pressure {Pa}
  5,                                      ! Wind Speed {m/s}
  300,                                    ! Wind Direction {deg}
  0,                                      ! Sky Clearness
  0,                                      ! Rain Indicator
  0,                                      ! Snow Indicator
  21,                                     ! Day of Month
  7,                                      ! Month
  SummerDesignDay,                        ! Day Type
  0,                                      ! Daylight Saving Time Indicator
  Wetbulb,                                ! Humidity Indicating Type
  ,                                       ! Humidity Indicating Day Schedule Name
  DefaultMultipliers,                     ! Dry-Bulb Temperature Range Modifier Type
  ,                                       ! Dry-Bulb Temperature Range Modifier Schedule Name
  ASHRAETau,                              ! Solar Model Indicator
  ,                                       ! Beam Solar Day Schedule Name
  ,                                       ! Diffuse Solar Day Schedule Name
  0.555,                                  ! ASHRAE Taub {dimensionless}
  1.73;                                   ! ASHRAE Taud {dimensionless}

OS:ComponentData,
  {b2e5a6b5-b944-4fed-847f-0a4ada252ab1}, ! Handle
  Component Data 1,                       ! Name
  {04977564-f2b3-4d56-b5ea-dd340262606a}, ! UUID
  {0f9d2456-79e5-4eda-b5b3-3aab75fd1d71}, ! Version UUID
  1366306322,                             ! Creation Timestamp
  1366306322,                             ! Version Timestamp
  {3750eff3-b8d3-4b76-af23-ae906ca5f0f1}; ! Name of Object 1

