
OS:Version,
  {2a5eb09d-c7fa-4a04-abd5-b15e8323cb62}, ! Handle
  0.9.3;                                  ! Version Identifier

OS:SizingPeriod:DesignDay,
  {8547cdae-1f68-41a1-bd8d-d25e3a539349}, ! Handle
  Wilkes-Barre/Scranton Ann Htg 99.6% Condns DB, ! Name
  -15.9,                                  ! Maximum Dry-Bulb Temperature {C}
  0,                                      ! Daily Dry-Bulb Temperature Range {deltaC}
  -15.9,                                  ! Humidity Indicating Conditions at Maximum Dry-Bulb {BasedOnField A3}
  97901,                                  ! Barometric Pressure {Pa}
  3.7,                                    ! Wind Speed {m/s}
  240,                                    ! Wind Direction {deg}
  0,                                      ! Sky Clearness
  0,                                      ! Rain Indicator
  0,                                      ! Snow Indicator
  21,                                     ! Day of Month
  1,                                      ! Month
  WinterDesignDay,                        ! Day Type
  0,                                      ! Daylight Saving Time Indicator
  Wetbulb,                                ! Humidity Indicating Type
  ,                                       ! Humidity Indicating Day Schedule Name
  DefaultMultipliers,                     ! Dry-Bulb Temperature Range Modifier Type
  ,                                       ! Dry-Bulb Temperature Range Modifier Schedule Name
  ASHRAEClearSky;                         ! Solar Model Indicator

OS:ComponentData,
  {1f0f29a9-6f2a-4ffd-b8db-d79d63095e0c}, ! Handle
  Component Data 1,                       ! Name
  {7b0df174-c75e-4b23-b47f-6c70645669d9}, ! UUID
  {5575dd83-d7ef-4893-aaac-93129d91bf7c}, ! Version UUID
  1366310260,                             ! Creation Timestamp
  1366310260,                             ! Version Timestamp
  {8547cdae-1f68-41a1-bd8d-d25e3a539349}; ! Name of Object 1

