
OS:Version,
  {7c2ed94a-3f15-4348-9e75-a9d6a5d555cd}, ! Handle
  0.9.3;                                  ! Version Identifier

OS:SizingPeriod:DesignDay,
  {9a9a15d3-3b7d-400a-9d5c-af831284760b}, ! Handle
  St Clair County Int Ann Clg .4% Condns WB=>MDB, ! Name
  29.8,                                   ! Maximum Dry-Bulb Temperature {C}
  12.3,                                   ! Daily Dry-Bulb Temperature Range {deltaC}
  24.7,                                   ! Humidity Indicating Conditions at Maximum Dry-Bulb {BasedOnField A3}
  98969,                                  ! Barometric Pressure {Pa}
  3.6,                                    ! Wind Speed {m/s}
  170,                                    ! Wind Direction {deg}
  0,                                      ! Sky Clearness
  0,                                      ! Rain Indicator
  0,                                      ! Snow Indicator
  21,                                     ! Day of Month
  7,                                      ! Month
  SummerDesignDay,                        ! Day Type
  0,                                      ! Daylight Saving Time Indicator
  Wetbulb,                                ! Humidity Indicating Type
  ,                                       ! Humidity Indicating Day Schedule Name
  DefaultMultipliers,                     ! Dry-Bulb Temperature Range Modifier Type
  ,                                       ! Dry-Bulb Temperature Range Modifier Schedule Name
  ASHRAETau,                              ! Solar Model Indicator
  ,                                       ! Beam Solar Day Schedule Name
  ,                                       ! Diffuse Solar Day Schedule Name
  0.47,                                   ! ASHRAE Taub {dimensionless}
  1.976;                                  ! ASHRAE Taud {dimensionless}

OS:ComponentData,
  {f2741281-d689-43fb-9406-b83d546af803}, ! Handle
  Component Data 1,                       ! Name
  {4c0805d3-a5a1-4637-8a7a-98b76fcde4b9}, ! UUID
  {a3c1ee0e-0656-48a7-88f9-19aa6929a3a1}, ! Version UUID
  1366308116,                             ! Creation Timestamp
  1366308116,                             ! Version Timestamp
  {9a9a15d3-3b7d-400a-9d5c-af831284760b}; ! Name of Object 1

