
OS:Version,
  {23f50ce8-39e4-4b2a-bc90-a1f439f14485}, ! Handle
  0.9.3;                                  ! Version Identifier

OS:SizingPeriod:DesignDay,
  {0169413c-675c-413e-804f-608dada01a94}, ! Handle
  Minot/Int'l Airport Ann Htg 99.6% Condns DB, ! Name
  -28.8,                                  ! Maximum Dry-Bulb Temperature {C}
  0,                                      ! Daily Dry-Bulb Temperature Range {deltaC}
  -28.8,                                  ! Humidity Indicating Conditions at Maximum Dry-Bulb {BasedOnField A3}
  95198,                                  ! Barometric Pressure {Pa}
  5.4,                                    ! Wind Speed {m/s}
  280,                                    ! Wind Direction {deg}
  0,                                      ! Sky Clearness
  0,                                      ! Rain Indicator
  0,                                      ! Snow Indicator
  21,                                     ! Day of Month
  1,                                      ! Month
  WinterDesignDay,                        ! Day Type
  0,                                      ! Daylight Saving Time Indicator
  Wetbulb,                                ! Humidity Indicating Type
  ,                                       ! Humidity Indicating Day Schedule Name
  DefaultMultipliers,                     ! Dry-Bulb Temperature Range Modifier Type
  ,                                       ! Dry-Bulb Temperature Range Modifier Schedule Name
  ASHRAEClearSky;                         ! Solar Model Indicator

OS:ComponentData,
  {d39f38c7-89b0-4ea6-b7e1-1338c06ee51f}, ! Handle
  Component Data 1,                       ! Name
  {24ab2356-357b-4492-a382-105570a0f20d}, ! UUID
  {fc63dd27-e2c8-40eb-8ebb-b69e271b9d53}, ! Version UUID
  1366309062,                             ! Creation Timestamp
  1366309062,                             ! Version Timestamp
  {0169413c-675c-413e-804f-608dada01a94}; ! Name of Object 1

