
OS:Version,
  {57f20539-c8b9-4a52-be18-e6fe60b24186}, ! Handle
  0.9.3;                                  ! Version Identifier

OS:SizingPeriod:DesignDay,
  {f8e07014-1389-43d5-a525-e9d61b6bfae6}, ! Handle
  New Orleans Intl Arpt Ann Htg Wind 99.6% Condns WS=>MCDB, ! Name
  13.1,                                   ! Maximum Dry-Bulb Temperature {C}
  0,                                      ! Daily Dry-Bulb Temperature Range {deltaC}
  13.1,                                   ! Humidity Indicating Conditions at Maximum Dry-Bulb {BasedOnField A3}
  101313,                                 ! Barometric Pressure {Pa}
  10.6,                                   ! Wind Speed {m/s}
  10,                                     ! Wind Direction {deg}
  0,                                      ! Sky Clearness
  0,                                      ! Rain Indicator
  0,                                      ! Snow Indicator
  21,                                     ! Day of Month
  1,                                      ! Month
  WinterDesignDay,                        ! Day Type
  0,                                      ! Daylight Saving Time Indicator
  Wetbulb,                                ! Humidity Indicating Type
  ,                                       ! Humidity Indicating Day Schedule Name
  DefaultMultipliers,                     ! Dry-Bulb Temperature Range Modifier Type
  ,                                       ! Dry-Bulb Temperature Range Modifier Schedule Name
  ASHRAEClearSky;                         ! Solar Model Indicator

OS:ComponentData,
  {18f72280-c5f8-499b-a1e6-43ebcebb435a}, ! Handle
  Component Data 1,                       ! Name
  {69d8af14-902d-443b-ad09-553b5ef82ba0}, ! UUID
  {289b6cd5-6bbd-4dcb-b867-5c9dd4f3a699}, ! Version UUID
  1366307754,                             ! Creation Timestamp
  1366307754,                             ! Version Timestamp
  {f8e07014-1389-43d5-a525-e9d61b6bfae6}; ! Name of Object 1

