
OS:Version,
  {4e296903-0894-41a7-b294-f5c974cbaf50}, ! Handle
  0.9.3;                                  ! Version Identifier

OS:SizingPeriod:DesignDay,
  {69627ab3-222d-432a-9d83-7500b59f44f1}, ! Handle
  MOBILE Ann Clg 1% Condns Enth=>MDB,     ! Name
  30.6,                                   ! Maximum Dry-Bulb Temperature {C}
  9.4,                                    ! Daily Dry-Bulb Temperature Range {deltaC}
  81100,                                  ! Humidity Indicating Conditions at Maximum Dry-Bulb {BasedOnField A3}
  100523,                                 ! Barometric Pressure {Pa}
  3.5,                                    ! Wind Speed {m/s}
  350,                                    ! Wind Direction {deg}
  0,                                      ! Sky Clearness
  0,                                      ! Rain Indicator
  0,                                      ! Snow Indicator
  21,                                     ! Day of Month
  7,                                      ! Month
  SummerDesignDay,                        ! Day Type
  0,                                      ! Daylight Saving Time Indicator
  Enthalpy,                               ! Humidity Indicating Type
  ,                                       ! Humidity Indicating Day Schedule Name
  DefaultMultipliers,                     ! Dry-Bulb Temperature Range Modifier Type
  ,                                       ! Dry-Bulb Temperature Range Modifier Schedule Name
  ASHRAETau,                              ! Solar Model Indicator
  ,                                       ! Beam Solar Day Schedule Name
  ,                                       ! Diffuse Solar Day Schedule Name
  0.538,                                  ! ASHRAE Taub {dimensionless}
  1.867;                                  ! ASHRAE Taud {dimensionless}

OS:ComponentData,
  {08a481e1-8580-4444-b07b-04986696d222}, ! Handle
  Component Data 1,                       ! Name
  {c9d906b7-4abe-47af-9d45-5d260c608c62}, ! UUID
  {4827a061-5650-456a-bd98-88ae6b01651f}, ! Version UUID
  1366305848,                             ! Creation Timestamp
  1366305848,                             ! Version Timestamp
  {69627ab3-222d-432a-9d83-7500b59f44f1}; ! Name of Object 1

