
OS:Version,
  {8f320367-e0a1-4eec-8f4e-2b7173837683}, ! Handle
  0.9.3;                                  ! Version Identifier

OS:SizingPeriod:DesignDay,
  {8070a974-bb4e-4094-ac73-49124d090f04}, ! Handle
  Provo Muni  Awos Ann Htg 99.6% Condns DB, ! Name
  -12.8,                                  ! Maximum Dry-Bulb Temperature {C}
  0,                                      ! Daily Dry-Bulb Temperature Range {deltaC}
  -12.8,                                  ! Humidity Indicating Conditions at Maximum Dry-Bulb {BasedOnField A3}
  85924,                                  ! Barometric Pressure {Pa}
  1.2,                                    ! Wind Speed {m/s}
  140,                                    ! Wind Direction {deg}
  0,                                      ! Sky Clearness
  0,                                      ! Rain Indicator
  0,                                      ! Snow Indicator
  21,                                     ! Day of Month
  12,                                     ! Month
  WinterDesignDay,                        ! Day Type
  0,                                      ! Daylight Saving Time Indicator
  Wetbulb,                                ! Humidity Indicating Type
  ,                                       ! Humidity Indicating Day Schedule Name
  DefaultMultipliers,                     ! Dry-Bulb Temperature Range Modifier Type
  ,                                       ! Dry-Bulb Temperature Range Modifier Schedule Name
  ASHRAEClearSky;                         ! Solar Model Indicator

