
OS:Version,
  {dfdb1c4b-e9b2-4345-b250-e86538b947a9}, ! Handle
  0.9.3;                                  ! Version Identifier

OS:SizingPeriod:DesignDay,
  {15f18187-5bde-4dba-b892-1a4dd9ecfbab}, ! Handle
  WILMINGTON Ann Hum_n 99% Condns DP=>MCDB, ! Name
  2.1,                                    ! Maximum Dry-Bulb Temperature {C}
  0,                                      ! Daily Dry-Bulb Temperature Range {deltaC}
  -11.3,                                  ! Humidity Indicating Conditions at Maximum Dry-Bulb {BasedOnField A3}
  101217,                                 ! Barometric Pressure {Pa}
  2.6,                                    ! Wind Speed {m/s}
  0,                                      ! Wind Direction {deg}
  0,                                      ! Sky Clearness
  0,                                      ! Rain Indicator
  0,                                      ! Snow Indicator
  21,                                     ! Day of Month
  1,                                      ! Month
  WinterDesignDay,                        ! Day Type
  0,                                      ! Daylight Saving Time Indicator
  Dewpoint,                               ! Humidity Indicating Type
  ,                                       ! Humidity Indicating Day Schedule Name
  DefaultMultipliers,                     ! Dry-Bulb Temperature Range Modifier Type
  ,                                       ! Dry-Bulb Temperature Range Modifier Schedule Name
  ASHRAEClearSky;                         ! Solar Model Indicator

OS:ComponentData,
  {344483ce-3da8-4fa2-9029-7108a90a59fb}, ! Handle
  Component Data 1,                       ! Name
  {3c763e6f-d882-49a2-87ef-3e51bfd2fa64}, ! UUID
  {bc2e555d-e17f-42d9-bd0d-f0af3aa6c77e}, ! Version UUID
  1366308985,                             ! Creation Timestamp
  1366308985,                             ! Version Timestamp
  {15f18187-5bde-4dba-b892-1a4dd9ecfbab}; ! Name of Object 1

