
OS:Version,
  {106167ef-52fc-442a-9967-5e70620d0ac8}, ! Handle
  0.9.3;                                  ! Version Identifier

OS:SizingPeriod:DesignDay,
  {108b3aae-c21e-4505-9f63-58ae3469a027}, ! Handle
  PORTLAND Ann Hum_n 99% Condns DP=>MCDB, ! Name
  1.5,                                    ! Maximum Dry-Bulb Temperature {C}
  0,                                      ! Daily Dry-Bulb Temperature Range {deltaC}
  -8.7,                                   ! Humidity Indicating Conditions at Maximum Dry-Bulb {BasedOnField A3}
  101181,                                 ! Barometric Pressure {Pa}
  5.1,                                    ! Wind Speed {m/s}
  120,                                    ! Wind Direction {deg}
  0,                                      ! Sky Clearness
  0,                                      ! Rain Indicator
  0,                                      ! Snow Indicator
  21,                                     ! Day of Month
  12,                                     ! Month
  WinterDesignDay,                        ! Day Type
  0,                                      ! Daylight Saving Time Indicator
  Dewpoint,                               ! Humidity Indicating Type
  ,                                       ! Humidity Indicating Day Schedule Name
  DefaultMultipliers,                     ! Dry-Bulb Temperature Range Modifier Type
  ,                                       ! Dry-Bulb Temperature Range Modifier Schedule Name
  ASHRAEClearSky;                         ! Solar Model Indicator

OS:ComponentData,
  {e96e69c6-1ca1-4df5-85c4-8e303c411563}, ! Handle
  Component Data 1,                       ! Name
  {3afd6eca-1ff9-45b0-9d14-e25c61a8bdd6}, ! UUID
  {df126fb7-1905-4f37-8c2f-318382c90856}, ! Version UUID
  1366310073,                             ! Creation Timestamp
  1366310073,                             ! Version Timestamp
  {108b3aae-c21e-4505-9f63-58ae3469a027}; ! Name of Object 1

