
OS:Version,
  {6a9a372d-6071-4988-a529-539e3208496c}, ! Handle
  0.9.3;                                  ! Version Identifier

OS:SizingPeriod:DesignDay,
  {df26ca42-a1d9-4cf0-9239-18cefbe5d720}, ! Handle
  New York J F Kennedy IntL Ar Ann Clg .4% Condns Enth=>MDB, ! Name
  29.1,                                   ! Maximum Dry-Bulb Temperature {C}
  7.4,                                    ! Daily Dry-Bulb Temperature Range {deltaC}
  75700,                                  ! Humidity Indicating Conditions at Maximum Dry-Bulb {BasedOnField A3}
  101265,                                 ! Barometric Pressure {Pa}
  5.6,                                    ! Wind Speed {m/s}
  230,                                    ! Wind Direction {deg}
  0,                                      ! Sky Clearness
  0,                                      ! Rain Indicator
  0,                                      ! Snow Indicator
  21,                                     ! Day of Month
  7,                                      ! Month
  SummerDesignDay,                        ! Day Type
  0,                                      ! Daylight Saving Time Indicator
  Enthalpy,                               ! Humidity Indicating Type
  ,                                       ! Humidity Indicating Day Schedule Name
  DefaultMultipliers,                     ! Dry-Bulb Temperature Range Modifier Type
  ,                                       ! Dry-Bulb Temperature Range Modifier Schedule Name
  ASHRAETau,                              ! Solar Model Indicator
  ,                                       ! Beam Solar Day Schedule Name
  ,                                       ! Diffuse Solar Day Schedule Name
  0.541,                                  ! ASHRAE Taub {dimensionless}
  1.8;                                    ! ASHRAE Taud {dimensionless}

OS:ComponentData,
  {00be1d71-4b14-4e72-be6b-32b165ec35f3}, ! Handle
  Component Data 1,                       ! Name
  {e8e26231-122c-417e-9473-19887a3ba66a}, ! UUID
  {5bc2df30-0be1-4e37-94fb-f42d99598642}, ! Version UUID
  1366309666,                             ! Creation Timestamp
  1366309666,                             ! Version Timestamp
  {df26ca42-a1d9-4cf0-9239-18cefbe5d720}; ! Name of Object 1

