
OS:Version,
  {a522fbae-6edc-4058-b027-0ec2752fd472}, ! Handle
  0.9.3;                                  ! Version Identifier

OS:SizingPeriod:DesignDay,
  {b816a9aa-7f07-46ef-8f91-7e50319be5a5}, ! Handle
  New Orleans Intl Arpt Ann Clg 1% Condns Enth=>MDB, ! Name
  31.1,                                   ! Maximum Dry-Bulb Temperature {C}
  8.5,                                    ! Daily Dry-Bulb Temperature Range {deltaC}
  83100,                                  ! Humidity Indicating Conditions at Maximum Dry-Bulb {BasedOnField A3}
  101313,                                 ! Barometric Pressure {Pa}
  3.4,                                    ! Wind Speed {m/s}
  0,                                      ! Wind Direction {deg}
  0,                                      ! Sky Clearness
  0,                                      ! Rain Indicator
  0,                                      ! Snow Indicator
  21,                                     ! Day of Month
  8,                                      ! Month
  SummerDesignDay,                        ! Day Type
  0,                                      ! Daylight Saving Time Indicator
  Enthalpy,                               ! Humidity Indicating Type
  ,                                       ! Humidity Indicating Day Schedule Name
  DefaultMultipliers,                     ! Dry-Bulb Temperature Range Modifier Type
  ,                                       ! Dry-Bulb Temperature Range Modifier Schedule Name
  ASHRAETau,                              ! Solar Model Indicator
  ,                                       ! Beam Solar Day Schedule Name
  ,                                       ! Diffuse Solar Day Schedule Name
  0.553,                                  ! ASHRAE Taub {dimensionless}
  1.821;                                  ! ASHRAE Taud {dimensionless}

OS:ComponentData,
  {71c0a06a-a95a-4e28-a182-a9e9f7e96741}, ! Handle
  Component Data 1,                       ! Name
  {8346fea7-4878-448e-8fec-f9290185d99a}, ! UUID
  {11ac548f-7abc-4864-81c6-98947d9b3c14}, ! Version UUID
  1366307756,                             ! Creation Timestamp
  1366307756,                             ! Version Timestamp
  {b816a9aa-7f07-46ef-8f91-7e50319be5a5}; ! Name of Object 1

