
OS:Version,
  {f0bcf455-b49a-4cb2-9600-89b9f53be5cb}, ! Handle
  0.9.3;                                  ! Version Identifier

OS:SizingPeriod:DesignDay,
  {7e8ad372-ffa8-4364-a675-013602ac75d8}, ! Handle
  W  Chicago Du Page Ann Clg 1% Condns Enth=>MDB, ! Name
  29.2,                                   ! Maximum Dry-Bulb Temperature {C}
  11,                                     ! Daily Dry-Bulb Temperature Range {deltaC}
  75900,                                  ! Humidity Indicating Conditions at Maximum Dry-Bulb {BasedOnField A3}
  98581,                                  ! Barometric Pressure {Pa}
  5.1,                                    ! Wind Speed {m/s}
  240,                                    ! Wind Direction {deg}
  0,                                      ! Sky Clearness
  0,                                      ! Rain Indicator
  0,                                      ! Snow Indicator
  21,                                     ! Day of Month
  7,                                      ! Month
  SummerDesignDay,                        ! Day Type
  0,                                      ! Daylight Saving Time Indicator
  Enthalpy,                               ! Humidity Indicating Type
  ,                                       ! Humidity Indicating Day Schedule Name
  DefaultMultipliers,                     ! Dry-Bulb Temperature Range Modifier Type
  ,                                       ! Dry-Bulb Temperature Range Modifier Schedule Name
  ASHRAETau,                              ! Solar Model Indicator
  ,                                       ! Beam Solar Day Schedule Name
  ,                                       ! Diffuse Solar Day Schedule Name
  0.449,                                  ! ASHRAE Taub {dimensionless}
  2.068;                                  ! ASHRAE Taud {dimensionless}

OS:ComponentData,
  {8033884b-32d8-411e-afb9-f48d76caec08}, ! Handle
  Component Data 1,                       ! Name
  {cc77aad9-9bdf-4f0c-a9a3-9ff28071a823}, ! UUID
  {0670f30f-1730-43ee-bbe5-4f6f7d650827}, ! Version UUID
  1366307360,                             ! Creation Timestamp
  1366307360,                             ! Version Timestamp
  {7e8ad372-ffa8-4364-a675-013602ac75d8}; ! Name of Object 1

