
OS:Version,
  {94e5ceda-00a3-4e97-a5fa-84b17b5af184}, ! Handle
  0.9.3;                                  ! Version Identifier

OS:SizingPeriod:DesignDay,
  {04ce0c20-7e22-425b-bad0-dd35ff890bef}, ! Handle
  Winona Muni  Awos Ann Clg 1% Condns WB=>MDB, ! Name
  28.8,                                   ! Maximum Dry-Bulb Temperature {C}
  10.6,                                   ! Daily Dry-Bulb Temperature Range {deltaC}
  24.1,                                   ! Humidity Indicating Conditions at Maximum Dry-Bulb {BasedOnField A3}
  98945,                                  ! Barometric Pressure {Pa}
  3.3,                                    ! Wind Speed {m/s}
  190,                                    ! Wind Direction {deg}
  0,                                      ! Sky Clearness
  0,                                      ! Rain Indicator
  0,                                      ! Snow Indicator
  21,                                     ! Day of Month
  7,                                      ! Month
  SummerDesignDay,                        ! Day Type
  0,                                      ! Daylight Saving Time Indicator
  Wetbulb,                                ! Humidity Indicating Type
  ,                                       ! Humidity Indicating Day Schedule Name
  DefaultMultipliers,                     ! Dry-Bulb Temperature Range Modifier Type
  ,                                       ! Dry-Bulb Temperature Range Modifier Schedule Name
  ASHRAETau,                              ! Solar Model Indicator
  ,                                       ! Beam Solar Day Schedule Name
  ,                                       ! Diffuse Solar Day Schedule Name
  0.424,                                  ! ASHRAE Taub {dimensionless}
  2.155;                                  ! ASHRAE Taud {dimensionless}

OS:ComponentData,
  {d6e58684-1c38-43f2-8342-df432e7497ab}, ! Handle
  Component Data 1,                       ! Name
  {ae173976-4143-4372-9eb3-b05dc72fb443}, ! UUID
  {3b40044f-0a7f-492b-aad9-d604227ee444}, ! Version UUID
  1366308464,                             ! Creation Timestamp
  1366308464,                             ! Version Timestamp
  {04ce0c20-7e22-425b-bad0-dd35ff890bef}; ! Name of Object 1

