
OS:Version,
  {3b70ccd5-eba5-48bb-ba40-e2dc5265aed7}, ! Handle
  0.9.3;                                  ! Version Identifier

OS:SizingPeriod:DesignDay,
  {3f53daf8-8006-495d-ba99-e28d1f5f502c}, ! Handle
  Rock Springs Arpt  Green Rive Ann Clg .4% Condns Enth=>MDB, ! Name
  25.2,                                   ! Maximum Dry-Bulb Temperature {C}
  15.3,                                   ! Daily Dry-Bulb Temperature Range {deltaC}
  48200,                                  ! Humidity Indicating Conditions at Maximum Dry-Bulb {BasedOnField A3}
  89875,                                  ! Barometric Pressure {Pa}
  5.3,                                    ! Wind Speed {m/s}
  260,                                    ! Wind Direction {deg}
  0,                                      ! Sky Clearness
  0,                                      ! Rain Indicator
  0,                                      ! Snow Indicator
  21,                                     ! Day of Month
  7,                                      ! Month
  SummerDesignDay,                        ! Day Type
  0,                                      ! Daylight Saving Time Indicator
  Enthalpy,                               ! Humidity Indicating Type
  ,                                       ! Humidity Indicating Day Schedule Name
  DefaultMultipliers,                     ! Dry-Bulb Temperature Range Modifier Type
  ,                                       ! Dry-Bulb Temperature Range Modifier Schedule Name
  ASHRAETau,                              ! Solar Model Indicator
  ,                                       ! Beam Solar Day Schedule Name
  ,                                       ! Diffuse Solar Day Schedule Name
  0.402,                                  ! ASHRAE Taub {dimensionless}
  1.99;                                   ! ASHRAE Taud {dimensionless}

