
OS:Version,
  {8f7727cf-0821-4ca9-b2fb-55baac5081b5}, ! Handle
  0.9.3;                                  ! Version Identifier

OS:SizingPeriod:DesignDay,
  {3191c921-5433-40db-9ba5-b76dd2242b76}, ! Handle
  Yakima Air Terminal Ann Htg 99% Condns DB, ! Name
  -11.1,                                  ! Maximum Dry-Bulb Temperature {C}
  0,                                      ! Daily Dry-Bulb Temperature Range {deltaC}
  -11.1,                                  ! Humidity Indicating Conditions at Maximum Dry-Bulb {BasedOnField A3}
  97493,                                  ! Barometric Pressure {Pa}
  2.4,                                    ! Wind Speed {m/s}
  280,                                    ! Wind Direction {deg}
  0,                                      ! Sky Clearness
  0,                                      ! Rain Indicator
  0,                                      ! Snow Indicator
  21,                                     ! Day of Month
  12,                                     ! Month
  WinterDesignDay,                        ! Day Type
  0,                                      ! Daylight Saving Time Indicator
  Wetbulb,                                ! Humidity Indicating Type
  ,                                       ! Humidity Indicating Day Schedule Name
  DefaultMultipliers,                     ! Dry-Bulb Temperature Range Modifier Type
  ,                                       ! Dry-Bulb Temperature Range Modifier Schedule Name
  ASHRAEClearSky;                         ! Solar Model Indicator

OS:ComponentData,
  {c7ceaf20-b391-4757-8e83-99a0f699294a}, ! Handle
  Component Data 1,                       ! Name
  {df80fa16-3ad9-4a6a-a657-64edb77a7a80}, ! UUID
  {9030d668-304f-4b8a-baca-6bc9982353c1}, ! Version UUID
  1366311451,                             ! Creation Timestamp
  1366311451,                             ! Version Timestamp
  {3191c921-5433-40db-9ba5-b76dd2242b76}; ! Name of Object 1

