
OS:Version,
  {807c7f6d-2576-411c-b0fc-3be97c9e1172}, ! Handle
  0.9.3;                                  ! Version Identifier

OS:SizingPeriod:DesignDay,
  {a2c3645a-e8f4-4d4a-b966-8660e1e13308}, ! Handle
  Traverse City Cherry Capital Ann Clg .4% Condns Enth=>MDB, ! Name
  29.3,                                   ! Maximum Dry-Bulb Temperature {C}
  11.8,                                   ! Daily Dry-Bulb Temperature Range {deltaC}
  71900,                                  ! Humidity Indicating Conditions at Maximum Dry-Bulb {BasedOnField A3}
  99087,                                  ! Barometric Pressure {Pa}
  5.1,                                    ! Wind Speed {m/s}
  230,                                    ! Wind Direction {deg}
  0,                                      ! Sky Clearness
  0,                                      ! Rain Indicator
  0,                                      ! Snow Indicator
  21,                                     ! Day of Month
  7,                                      ! Month
  SummerDesignDay,                        ! Day Type
  0,                                      ! Daylight Saving Time Indicator
  Enthalpy,                               ! Humidity Indicating Type
  ,                                       ! Humidity Indicating Day Schedule Name
  DefaultMultipliers,                     ! Dry-Bulb Temperature Range Modifier Type
  ,                                       ! Dry-Bulb Temperature Range Modifier Schedule Name
  ASHRAETau,                              ! Solar Model Indicator
  ,                                       ! Beam Solar Day Schedule Name
  ,                                       ! Diffuse Solar Day Schedule Name
  0.422,                                  ! ASHRAE Taub {dimensionless}
  2.177;                                  ! ASHRAE Taud {dimensionless}

OS:ComponentData,
  {3772c6a9-1f37-4e73-a24f-d1e53b785b66}, ! Handle
  Component Data 1,                       ! Name
  {5e70be13-8fbd-4079-bb0d-19f980ba1a58}, ! UUID
  {4e7fd355-efe8-46c5-ab17-baac265ff564}, ! Version UUID
  1366308126,                             ! Creation Timestamp
  1366308126,                             ! Version Timestamp
  {a2c3645a-e8f4-4d4a-b966-8660e1e13308}; ! Name of Object 1

