
OS:Version,
  {d98a7996-d4c0-4ca3-81b0-590bd2f46491}, ! Handle
  0.9.3;                                  ! Version Identifier

OS:SizingPeriod:DesignDay,
  {cc41c0de-cf75-475e-b5d4-38d029425bb5}, ! Handle
  Rice Lake Municipal Ann Clg 1% Condns WB=>MDB, ! Name
  27.7,                                   ! Maximum Dry-Bulb Temperature {C}
  11.8,                                   ! Daily Dry-Bulb Temperature Range {deltaC}
  23.8,                                   ! Humidity Indicating Conditions at Maximum Dry-Bulb {BasedOnField A3}
  97225,                                  ! Barometric Pressure {Pa}
  4.8,                                    ! Wind Speed {m/s}
  190,                                    ! Wind Direction {deg}
  0,                                      ! Sky Clearness
  0,                                      ! Rain Indicator
  0,                                      ! Snow Indicator
  21,                                     ! Day of Month
  7,                                      ! Month
  SummerDesignDay,                        ! Day Type
  0,                                      ! Daylight Saving Time Indicator
  Wetbulb,                                ! Humidity Indicating Type
  ,                                       ! Humidity Indicating Day Schedule Name
  DefaultMultipliers,                     ! Dry-Bulb Temperature Range Modifier Type
  ,                                       ! Dry-Bulb Temperature Range Modifier Schedule Name
  ASHRAETau,                              ! Solar Model Indicator
  ,                                       ! Beam Solar Day Schedule Name
  ,                                       ! Diffuse Solar Day Schedule Name
  0.403,                                  ! ASHRAE Taub {dimensionless}
  2.213;                                  ! ASHRAE Taud {dimensionless}

OS:ComponentData,
  {88e481ca-6a48-45ec-8795-1852f080f4b3}, ! Handle
  Component Data 1,                       ! Name
  {7e541367-c8fe-444e-9510-63add9615345}, ! UUID
  {bf2b66cd-8cb3-430e-a49f-1c723b65c229}, ! Version UUID
  1366311582,                             ! Creation Timestamp
  1366311582,                             ! Version Timestamp
  {cc41c0de-cf75-475e-b5d4-38d029425bb5}; ! Name of Object 1

