
OS:Version,
  {60d70e69-379e-4066-a4ce-c037002d2f5a}, ! Handle
  0.9.3;                                  ! Version Identifier

OS:SizingPeriod:DesignDay,
  {f3fb1c86-75d1-448a-ad4b-387ac1a93dea}, ! Handle
  St Louis Lambert IntL Arpt Ann Clg 1% Condns WB=>MDB, ! Name
  31.8,                                   ! Maximum Dry-Bulb Temperature {C}
  9.5,                                    ! Daily Dry-Bulb Temperature Range {deltaC}
  25.7,                                   ! Humidity Indicating Conditions at Maximum Dry-Bulb {BasedOnField A3}
  99264,                                  ! Barometric Pressure {Pa}
  4.6,                                    ! Wind Speed {m/s}
  240,                                    ! Wind Direction {deg}
  0,                                      ! Sky Clearness
  0,                                      ! Rain Indicator
  0,                                      ! Snow Indicator
  21,                                     ! Day of Month
  7,                                      ! Month
  SummerDesignDay,                        ! Day Type
  0,                                      ! Daylight Saving Time Indicator
  Wetbulb,                                ! Humidity Indicating Type
  ,                                       ! Humidity Indicating Day Schedule Name
  DefaultMultipliers,                     ! Dry-Bulb Temperature Range Modifier Type
  ,                                       ! Dry-Bulb Temperature Range Modifier Schedule Name
  ASHRAETau,                              ! Solar Model Indicator
  ,                                       ! Beam Solar Day Schedule Name
  ,                                       ! Diffuse Solar Day Schedule Name
  0.47,                                   ! ASHRAE Taub {dimensionless}
  2.004;                                  ! ASHRAE Taud {dimensionless}

OS:ComponentData,
  {fceedb00-42f4-4f9d-8fef-9b7747623bd8}, ! Handle
  Component Data 1,                       ! Name
  {2038709b-8ea2-4ba6-b6a7-45454fc5d2cb}, ! UUID
  {146d596c-a2e5-425a-9711-506de5fcdcc6}, ! Version UUID
  1366308585,                             ! Creation Timestamp
  1366308585,                             ! Version Timestamp
  {f3fb1c86-75d1-448a-ad4b-387ac1a93dea}; ! Name of Object 1

