
OS:Version,
  {906ff9eb-90b0-4cbb-a237-538501cdd2b5}, ! Handle
  0.9.3;                                  ! Version Identifier

OS:SizingPeriod:DesignDay,
  {27a6c783-7e9f-4661-860c-970ea3b19638}, ! Handle
  Orlando Executive Ap Ann Htg Wind 99% Condns WS=>MCDB, ! Name
  17.7,                                   ! Maximum Dry-Bulb Temperature {C}
  0,                                      ! Daily Dry-Bulb Temperature Range {deltaC}
  17.7,                                   ! Humidity Indicating Conditions at Maximum Dry-Bulb {BasedOnField A3}
  100929,                                 ! Barometric Pressure {Pa}
  8.2,                                    ! Wind Speed {m/s}
  310,                                    ! Wind Direction {deg}
  0,                                      ! Sky Clearness
  0,                                      ! Rain Indicator
  0,                                      ! Snow Indicator
  21,                                     ! Day of Month
  12,                                     ! Month
  WinterDesignDay,                        ! Day Type
  0,                                      ! Daylight Saving Time Indicator
  Wetbulb,                                ! Humidity Indicating Type
  ,                                       ! Humidity Indicating Day Schedule Name
  DefaultMultipliers,                     ! Dry-Bulb Temperature Range Modifier Type
  ,                                       ! Dry-Bulb Temperature Range Modifier Schedule Name
  ASHRAEClearSky;                         ! Solar Model Indicator

OS:ComponentData,
  {a44957a4-3a6c-43a8-9565-38153dd5abf2}, ! Handle
  Component Data 1,                       ! Name
  {d669ec29-4900-43d0-b893-867698aa3650}, ! UUID
  {5ebca441-e6b8-4e52-bbf1-80ce93860d49}, ! Version UUID
  1366306891,                             ! Creation Timestamp
  1366306891,                             ! Version Timestamp
  {27a6c783-7e9f-4661-860c-970ea3b19638}; ! Name of Object 1

