
OS:Version,
  {b417bde7-0a7a-4c58-b570-bf9b2132e408}, ! Handle
  0.9.3;                                  ! Version Identifier

OS:SizingPeriod:DesignDay,
  {05d07fa7-f323-4ac8-ac82-cf5fb15094f9}, ! Handle
  Wilmington New Castle Cnty Ap Ann Clg .4% Condns Enth=>MDB, ! Name
  30.9,                                   ! Maximum Dry-Bulb Temperature {C}
  9.5,                                    ! Daily Dry-Bulb Temperature Range {deltaC}
  78400,                                  ! Humidity Indicating Conditions at Maximum Dry-Bulb {BasedOnField A3}
  101049,                                 ! Barometric Pressure {Pa}
  4.6,                                    ! Wind Speed {m/s}
  240,                                    ! Wind Direction {deg}
  0,                                      ! Sky Clearness
  0,                                      ! Rain Indicator
  0,                                      ! Snow Indicator
  21,                                     ! Day of Month
  7,                                      ! Month
  SummerDesignDay,                        ! Day Type
  0,                                      ! Daylight Saving Time Indicator
  Enthalpy,                               ! Humidity Indicating Type
  ,                                       ! Humidity Indicating Day Schedule Name
  DefaultMultipliers,                     ! Dry-Bulb Temperature Range Modifier Type
  ,                                       ! Dry-Bulb Temperature Range Modifier Schedule Name
  ASHRAETau,                              ! Solar Model Indicator
  ,                                       ! Beam Solar Day Schedule Name
  ,                                       ! Diffuse Solar Day Schedule Name
  0.557,                                  ! ASHRAE Taub {dimensionless}
  1.755;                                  ! ASHRAE Taud {dimensionless}

OS:ComponentData,
  {93e0b822-3419-4f8e-9024-8960335d7249}, ! Handle
  Component Data 1,                       ! Name
  {71454ded-fd92-46d9-9e05-1b7ae1cff956}, ! UUID
  {95f1742e-8b1c-460f-b25a-41d88891b904}, ! Version UUID
  1366306777,                             ! Creation Timestamp
  1366306777,                             ! Version Timestamp
  {05d07fa7-f323-4ac8-ac82-cf5fb15094f9}; ! Name of Object 1

