
OS:Version,
  {73726afa-54f0-4b81-ad0c-e6fba8425f0b}, ! Handle
  0.9.3;                                  ! Version Identifier

OS:SizingPeriod:DesignDay,
  {5fd49683-23c9-4ccd-8a0a-e7f365d8b944}, ! Handle
  Massena Ann Clg 2% Condns DB=>MWB,      ! Name
  27.8,                                   ! Maximum Dry-Bulb Temperature {C}
  11.7,                                   ! Daily Dry-Bulb Temperature Range {deltaC}
  20.8,                                   ! Humidity Indicating Conditions at Maximum Dry-Bulb {BasedOnField A3}
  100547,                                 ! Barometric Pressure {Pa}
  4.7,                                    ! Wind Speed {m/s}
  240,                                    ! Wind Direction {deg}
  0,                                      ! Sky Clearness
  0,                                      ! Rain Indicator
  0,                                      ! Snow Indicator
  21,                                     ! Day of Month
  7,                                      ! Month
  SummerDesignDay,                        ! Day Type
  0,                                      ! Daylight Saving Time Indicator
  Wetbulb,                                ! Humidity Indicating Type
  ,                                       ! Humidity Indicating Day Schedule Name
  DefaultMultipliers,                     ! Dry-Bulb Temperature Range Modifier Type
  ,                                       ! Dry-Bulb Temperature Range Modifier Schedule Name
  ASHRAETau,                              ! Solar Model Indicator
  ,                                       ! Beam Solar Day Schedule Name
  ,                                       ! Diffuse Solar Day Schedule Name
  0.454,                                  ! ASHRAE Taub {dimensionless}
  2.024;                                  ! ASHRAE Taud {dimensionless}

OS:ComponentData,
  {238d2580-6a9f-4edb-8a01-4f215192977b}, ! Handle
  Component Data 1,                       ! Name
  {bb2c6720-8e28-4d0c-bc88-25d610acfc25}, ! UUID
  {e415b2fe-d1d4-4e9b-93e8-9e4191ead269}, ! Version UUID
  1366309650,                             ! Creation Timestamp
  1366309650,                             ! Version Timestamp
  {5fd49683-23c9-4ccd-8a0a-e7f365d8b944}; ! Name of Object 1

