
OS:Version,
  {ac993f44-0b26-458b-8597-195930ea3c04}, ! Handle
  0.9.3;                                  ! Version Identifier

OS:SizingPeriod:DesignDay,
  {6b447bf2-b844-4dab-8bf2-a35f7af2d293}, ! Handle
  Valdosta Wb Airport Ann Clg 2% Condns DB=>MWB, ! Name
  33.2,                                   ! Maximum Dry-Bulb Temperature {C}
  10.8,                                   ! Daily Dry-Bulb Temperature Range {deltaC}
  24.5,                                   ! Humidity Indicating Conditions at Maximum Dry-Bulb {BasedOnField A3}
  100594,                                 ! Barometric Pressure {Pa}
  3.1,                                    ! Wind Speed {m/s}
  300,                                    ! Wind Direction {deg}
  0,                                      ! Sky Clearness
  0,                                      ! Rain Indicator
  0,                                      ! Snow Indicator
  21,                                     ! Day of Month
  7,                                      ! Month
  SummerDesignDay,                        ! Day Type
  0,                                      ! Daylight Saving Time Indicator
  Wetbulb,                                ! Humidity Indicating Type
  ,                                       ! Humidity Indicating Day Schedule Name
  DefaultMultipliers,                     ! Dry-Bulb Temperature Range Modifier Type
  ,                                       ! Dry-Bulb Temperature Range Modifier Schedule Name
  ASHRAETau,                              ! Solar Model Indicator
  ,                                       ! Beam Solar Day Schedule Name
  ,                                       ! Diffuse Solar Day Schedule Name
  0.546,                                  ! ASHRAE Taub {dimensionless}
  1.837;                                  ! ASHRAE Taud {dimensionless}

OS:ComponentData,
  {a9efae3d-049b-4589-a960-222bef25f187}, ! Handle
  Component Data 1,                       ! Name
  {db6540b0-7d56-4b0d-bcf9-3b908d2c576e}, ! UUID
  {222b2d2b-7572-47b8-8425-406a54dfbbad}, ! Version UUID
  1366307063,                             ! Creation Timestamp
  1366307063,                             ! Version Timestamp
  {6b447bf2-b844-4dab-8bf2-a35f7af2d293}; ! Name of Object 1

