
OS:Version,
  {0acecc67-d1d9-466d-b301-aee349a589b1}, ! Handle
  0.9.3;                                  ! Version Identifier

OS:SizingPeriod:DesignDay,
  {641ff045-0a03-424b-94eb-74bdf21354c2}, ! Handle
  Panama City Bay Co Ann Clg 1% Condns Enth=>MDB, ! Name
  29.5,                                   ! Maximum Dry-Bulb Temperature {C}
  7.6,                                    ! Daily Dry-Bulb Temperature Range {deltaC}
  83600,                                  ! Humidity Indicating Conditions at Maximum Dry-Bulb {BasedOnField A3}
  101253,                                 ! Barometric Pressure {Pa}
  4.1,                                    ! Wind Speed {m/s}
  260,                                    ! Wind Direction {deg}
  0,                                      ! Sky Clearness
  0,                                      ! Rain Indicator
  0,                                      ! Snow Indicator
  21,                                     ! Day of Month
  7,                                      ! Month
  SummerDesignDay,                        ! Day Type
  0,                                      ! Daylight Saving Time Indicator
  Enthalpy,                               ! Humidity Indicating Type
  ,                                       ! Humidity Indicating Day Schedule Name
  DefaultMultipliers,                     ! Dry-Bulb Temperature Range Modifier Type
  ,                                       ! Dry-Bulb Temperature Range Modifier Schedule Name
  ASHRAETau,                              ! Solar Model Indicator
  ,                                       ! Beam Solar Day Schedule Name
  ,                                       ! Diffuse Solar Day Schedule Name
  0.522,                                  ! ASHRAE Taub {dimensionless}
  1.923;                                  ! ASHRAE Taud {dimensionless}

OS:ComponentData,
  {fd2f9a63-f900-479f-a7c1-b99d8d7535a9}, ! Handle
  Component Data 1,                       ! Name
  {b89fa20e-784e-4ff1-b559-313fb411b06d}, ! UUID
  {b94f77b4-d2d4-4bcd-bb03-f37c2f98d5c1}, ! Version UUID
  1366306900,                             ! Creation Timestamp
  1366306900,                             ! Version Timestamp
  {641ff045-0a03-424b-94eb-74bdf21354c2}; ! Name of Object 1

