
OS:Version,
  {f6c749b5-653a-45ab-b98f-df7dcd96f245}, ! Handle
  0.9.3;                                  ! Version Identifier

OS:SizingPeriod:DesignDay,
  {34b3ac02-8b40-496c-9d9a-b671682278eb}, ! Handle
  Valdez Wso Ann Clg 2% Condns WB=>MDB,   ! Name
  16.5,                                   ! Maximum Dry-Bulb Temperature {C}
  6.9,                                    ! Daily Dry-Bulb Temperature Range {deltaC}
  13.1,                                   ! Humidity Indicating Conditions at Maximum Dry-Bulb {BasedOnField A3}
  101241,                                 ! Barometric Pressure {Pa}
  4.2,                                    ! Wind Speed {m/s}
  240,                                    ! Wind Direction {deg}
  0,                                      ! Sky Clearness
  0,                                      ! Rain Indicator
  0,                                      ! Snow Indicator
  21,                                     ! Day of Month
  7,                                      ! Month
  SummerDesignDay,                        ! Day Type
  0,                                      ! Daylight Saving Time Indicator
  Wetbulb,                                ! Humidity Indicating Type
  ,                                       ! Humidity Indicating Day Schedule Name
  DefaultMultipliers,                     ! Dry-Bulb Temperature Range Modifier Type
  ,                                       ! Dry-Bulb Temperature Range Modifier Schedule Name
  ASHRAETau,                              ! Solar Model Indicator
  ,                                       ! Beam Solar Day Schedule Name
  ,                                       ! Diffuse Solar Day Schedule Name
  0.407,                                  ! ASHRAE Taub {dimensionless}
  2.026;                                  ! ASHRAE Taud {dimensionless}

OS:ComponentData,
  {ec77b098-56a9-4622-81c4-0ee0e4637060}, ! Handle
  Component Data 1,                       ! Name
  {178b499f-3914-412b-b40e-2bcecde7f47d}, ! UUID
  {2585c894-0e40-4852-8da3-e50aaf4ca5b3}, ! Version UUID
  1366305607,                             ! Creation Timestamp
  1366305607,                             ! Version Timestamp
  {34b3ac02-8b40-496c-9d9a-b671682278eb}; ! Name of Object 1

