
OS:Version,
  {2d3650b0-a223-406b-8ff7-be25d3ae01f1}, ! Handle
  0.9.3;                                  ! Version Identifier

OS:SizingPeriod:DesignDay,
  {f5953e77-c3ee-46b0-a4e1-4c1887266a47}, ! Handle
  Seattle Seattle Tacoma Intl A Ann Htg 99.6% Condns DB, ! Name
  -4.2,                                   ! Maximum Dry-Bulb Temperature {C}
  0,                                      ! Daily Dry-Bulb Temperature Range {deltaC}
  -4.2,                                   ! Humidity Indicating Conditions at Maximum Dry-Bulb {BasedOnField A3}
  99868,                                  ! Barometric Pressure {Pa}
  4.3,                                    ! Wind Speed {m/s}
  20,                                     ! Wind Direction {deg}
  0,                                      ! Sky Clearness
  0,                                      ! Rain Indicator
  0,                                      ! Snow Indicator
  21,                                     ! Day of Month
  12,                                     ! Month
  WinterDesignDay,                        ! Day Type
  0,                                      ! Daylight Saving Time Indicator
  Wetbulb,                                ! Humidity Indicating Type
  ,                                       ! Humidity Indicating Day Schedule Name
  DefaultMultipliers,                     ! Dry-Bulb Temperature Range Modifier Type
  ,                                       ! Dry-Bulb Temperature Range Modifier Schedule Name
  ASHRAEClearSky;                         ! Solar Model Indicator

OS:ComponentData,
  {12f0c9ef-9c63-498e-9cca-77184cb52da5}, ! Handle
  Component Data 1,                       ! Name
  {82a0ba13-3399-412f-ada0-58c0ec15e252}, ! UUID
  {950f6f08-0220-468a-96f4-d835c3a7e1f9}, ! Version UUID
  1366311363,                             ! Creation Timestamp
  1366311363,                             ! Version Timestamp
  {f5953e77-c3ee-46b0-a4e1-4c1887266a47}; ! Name of Object 1

