
OS:Version,
  {0dce2290-7084-4024-9f74-9c7605bc50d7}, ! Handle
  0.9.3;                                  ! Version Identifier

OS:SizingPeriod:DesignDay,
  {f87ad49b-c52b-4c04-bfb3-0ae7924a52c1}, ! Handle
  Mercury Desert Rock Ap  Surfr Ann Htg Wind 99% Condns WS=>MCDB, ! Name
  8.7,                                    ! Maximum Dry-Bulb Temperature {C}
  0,                                      ! Daily Dry-Bulb Temperature Range {deltaC}
  8.7,                                    ! Humidity Indicating Conditions at Maximum Dry-Bulb {BasedOnField A3}
  90585,                                  ! Barometric Pressure {Pa}
  11.5,                                   ! Wind Speed {m/s}
  30,                                     ! Wind Direction {deg}
  0,                                      ! Sky Clearness
  0,                                      ! Rain Indicator
  0,                                      ! Snow Indicator
  21,                                     ! Day of Month
  12,                                     ! Month
  WinterDesignDay,                        ! Day Type
  0,                                      ! Daylight Saving Time Indicator
  Wetbulb,                                ! Humidity Indicating Type
  ,                                       ! Humidity Indicating Day Schedule Name
  DefaultMultipliers,                     ! Dry-Bulb Temperature Range Modifier Type
  ,                                       ! Dry-Bulb Temperature Range Modifier Schedule Name
  ASHRAEClearSky;                         ! Solar Model Indicator

OS:ComponentData,
  {2a9bd20d-23d7-4673-86b6-ac11934071c7}, ! Handle
  Component Data 1,                       ! Name
  {d7573ca1-168f-45c0-9f4f-558cc906acce}, ! UUID
  {cc3e2023-55ab-48f5-98e2-78c4d4c19bb1}, ! Version UUID
  1366309521,                             ! Creation Timestamp
  1366309521,                             ! Version Timestamp
  {f87ad49b-c52b-4c04-bfb3-0ae7924a52c1}; ! Name of Object 1

