
OS:Version,
  {187aaab0-dde4-4c4c-b3b8-3eb2e6fad38a}, ! Handle
  0.9.3;                                  ! Version Identifier

OS:SizingPeriod:DesignDay,
  {ece25086-9005-4d85-8360-f0b73645623c}, ! Handle
  Pittsburgh International Ap Ann Hum_n 99% Condns DP=>MCDB, ! Name
  -11.2,                                  ! Maximum Dry-Bulb Temperature {C}
  0,                                      ! Daily Dry-Bulb Temperature Range {deltaC}
  -18,                                    ! Humidity Indicating Conditions at Maximum Dry-Bulb {BasedOnField A3}
  97190,                                  ! Barometric Pressure {Pa}
  3.6,                                    ! Wind Speed {m/s}
  240,                                    ! Wind Direction {deg}
  0,                                      ! Sky Clearness
  0,                                      ! Rain Indicator
  0,                                      ! Snow Indicator
  21,                                     ! Day of Month
  1,                                      ! Month
  WinterDesignDay,                        ! Day Type
  0,                                      ! Daylight Saving Time Indicator
  Dewpoint,                               ! Humidity Indicating Type
  ,                                       ! Humidity Indicating Day Schedule Name
  DefaultMultipliers,                     ! Dry-Bulb Temperature Range Modifier Type
  ,                                       ! Dry-Bulb Temperature Range Modifier Schedule Name
  ASHRAEClearSky;                         ! Solar Model Indicator

OS:ComponentData,
  {9d9aa5f6-f835-458d-867c-61b8e295c7c4}, ! Handle
  Component Data 1,                       ! Name
  {b99363c6-ce04-4ac7-bc8f-57a0a989f5d4}, ! UUID
  {e7b4f26b-2ec7-4528-97b8-8688218eddfc}, ! Version UUID
  1366310246,                             ! Creation Timestamp
  1366310246,                             ! Version Timestamp
  {ece25086-9005-4d85-8360-f0b73645623c}; ! Name of Object 1

