
OS:Version,
  {d03760ca-5208-46c4-9b15-cd881922d991}, ! Handle
  0.9.3;                                  ! Version Identifier

OS:SizingPeriod:DesignDay,
  {c2f164fb-3fab-4500-88b3-c05faa9d27b9}, ! Handle
  Yakutat State Arpt Ann Htg Wind 99% Condns WS=>MCDB, ! Name
  3,                                      ! Maximum Dry-Bulb Temperature {C}
  0,                                      ! Daily Dry-Bulb Temperature Range {deltaC}
  3,                                      ! Humidity Indicating Conditions at Maximum Dry-Bulb {BasedOnField A3}
  101229,                                 ! Barometric Pressure {Pa}
  11,                                     ! Wind Speed {m/s}
  100,                                    ! Wind Direction {deg}
  0,                                      ! Sky Clearness
  0,                                      ! Rain Indicator
  0,                                      ! Snow Indicator
  21,                                     ! Day of Month
  1,                                      ! Month
  WinterDesignDay,                        ! Day Type
  0,                                      ! Daylight Saving Time Indicator
  Wetbulb,                                ! Humidity Indicating Type
  ,                                       ! Humidity Indicating Day Schedule Name
  DefaultMultipliers,                     ! Dry-Bulb Temperature Range Modifier Type
  ,                                       ! Dry-Bulb Temperature Range Modifier Schedule Name
  ASHRAEClearSky;                         ! Solar Model Indicator

