
OS:Version,
  {3ee92f05-4f64-43ad-88c6-1685f8b4327f}, ! Handle
  0.9.3;                                  ! Version Identifier

OS:SizingPeriod:DesignDay,
  {3676045e-cce3-48a7-838e-cdc533dd1d84}, ! Handle
  Sarasota Bradenton Ann Clg .4% Condns Enth=>MDB, ! Name
  31.8,                                   ! Maximum Dry-Bulb Temperature {C}
  8.3,                                    ! Daily Dry-Bulb Temperature Range {deltaC}
  90200,                                  ! Humidity Indicating Conditions at Maximum Dry-Bulb {BasedOnField A3}
  101205,                                 ! Barometric Pressure {Pa}
  4.1,                                    ! Wind Speed {m/s}
  270,                                    ! Wind Direction {deg}
  0,                                      ! Sky Clearness
  0,                                      ! Rain Indicator
  0,                                      ! Snow Indicator
  21,                                     ! Day of Month
  7,                                      ! Month
  SummerDesignDay,                        ! Day Type
  0,                                      ! Daylight Saving Time Indicator
  Enthalpy,                               ! Humidity Indicating Type
  ,                                       ! Humidity Indicating Day Schedule Name
  DefaultMultipliers,                     ! Dry-Bulb Temperature Range Modifier Type
  ,                                       ! Dry-Bulb Temperature Range Modifier Schedule Name
  ASHRAETau,                              ! Solar Model Indicator
  ,                                       ! Beam Solar Day Schedule Name
  ,                                       ! Diffuse Solar Day Schedule Name
  0.498,                                  ! ASHRAE Taub {dimensionless}
  1.995;                                  ! ASHRAE Taud {dimensionless}

OS:ComponentData,
  {94125ac0-ea05-4f93-91c4-15fd72461dc1}, ! Handle
  Component Data 1,                       ! Name
  {92b74644-f4de-43dd-bcad-9b5a7a3942f6}, ! UUID
  {15b9146e-7517-4c88-aaea-e0009689dd2d}, ! Version UUID
  1366306909,                             ! Creation Timestamp
  1366306909,                             ! Version Timestamp
  {3676045e-cce3-48a7-838e-cdc533dd1d84}; ! Name of Object 1

