
OS:Version,
  {960a8a83-3c34-43e1-a7e2-87b83f465815}, ! Handle
  0.9.3;                                  ! Version Identifier

OS:SizingPeriod:DesignDay,
  {26ac6f99-90f3-4340-8739-57a1fe329bb2}, ! Handle
  White Plains Westchester Co A Ann Clg 1% Condns DP=>MDB, ! Name
  26,                                     ! Maximum Dry-Bulb Temperature {C}
  9.6,                                    ! Daily Dry-Bulb Temperature Range {deltaC}
  22.6,                                   ! Humidity Indicating Conditions at Maximum Dry-Bulb {BasedOnField A3}
  99868,                                  ! Barometric Pressure {Pa}
  3.8,                                    ! Wind Speed {m/s}
  270,                                    ! Wind Direction {deg}
  0,                                      ! Sky Clearness
  0,                                      ! Rain Indicator
  0,                                      ! Snow Indicator
  21,                                     ! Day of Month
  7,                                      ! Month
  SummerDesignDay,                        ! Day Type
  0,                                      ! Daylight Saving Time Indicator
  Dewpoint,                               ! Humidity Indicating Type
  ,                                       ! Humidity Indicating Day Schedule Name
  DefaultMultipliers,                     ! Dry-Bulb Temperature Range Modifier Type
  ,                                       ! Dry-Bulb Temperature Range Modifier Schedule Name
  ASHRAETau,                              ! Solar Model Indicator
  ,                                       ! Beam Solar Day Schedule Name
  ,                                       ! Diffuse Solar Day Schedule Name
  0.506,                                  ! ASHRAE Taub {dimensionless}
  1.88;                                   ! ASHRAE Taud {dimensionless}

OS:ComponentData,
  {163a7289-9367-46f1-ba18-15f6f9d21288}, ! Handle
  Component Data 1,                       ! Name
  {39273eef-ae42-47e8-bb68-a6c12da4338a}, ! UUID
  {c34e1e6b-33aa-45b1-82c3-741f66a347af}, ! Version UUID
  1366309756,                             ! Creation Timestamp
  1366309756,                             ! Version Timestamp
  {26ac6f99-90f3-4340-8739-57a1fe329bb2}; ! Name of Object 1

