
OS:Version,
  {05a18ea0-c7cb-40d9-a3da-de0c78a527b0}, ! Handle
  0.9.3;                                  ! Version Identifier

OS:SizingPeriod:DesignDay,
  {903d2d7b-7f1e-42ef-9604-8e421284f28a}, ! Handle
  Marfa Ap Ann Htg Wind 99% Condns WS=>MCDB, ! Name
  7.4,                                    ! Maximum Dry-Bulb Temperature {C}
  0,                                      ! Daily Dry-Bulb Temperature Range {deltaC}
  7.4,                                    ! Humidity Indicating Conditions at Maximum Dry-Bulb {BasedOnField A3}
  84836,                                  ! Barometric Pressure {Pa}
  11.9,                                   ! Wind Speed {m/s}
  40,                                     ! Wind Direction {deg}
  0,                                      ! Sky Clearness
  0,                                      ! Rain Indicator
  0,                                      ! Snow Indicator
  21,                                     ! Day of Month
  12,                                     ! Month
  WinterDesignDay,                        ! Day Type
  0,                                      ! Daylight Saving Time Indicator
  Wetbulb,                                ! Humidity Indicating Type
  ,                                       ! Humidity Indicating Day Schedule Name
  DefaultMultipliers,                     ! Dry-Bulb Temperature Range Modifier Type
  ,                                       ! Dry-Bulb Temperature Range Modifier Schedule Name
  ASHRAEClearSky;                         ! Solar Model Indicator

OS:ComponentData,
  {a8e8227e-1272-44ce-b12e-b2db639b9c2c}, ! Handle
  Component Data 1,                       ! Name
  {8c6ea670-16e2-43eb-8342-3fbcfdfb0880}, ! UUID
  {02401401-e4cb-4caf-afd3-d118e7109f56}, ! Version UUID
  1366310815,                             ! Creation Timestamp
  1366310815,                             ! Version Timestamp
  {903d2d7b-7f1e-42ef-9604-8e421284f28a}; ! Name of Object 1

