
OS:Version,
  {c1a29eaa-5da7-471b-b7ad-f8bce48fdb42}, ! Handle
  0.9.3;                                  ! Version Identifier

OS:SizingPeriod:DesignDay,
  {1a3c7a99-232a-4ed0-a69c-4f92be4c6eaa}, ! Handle
  TOLEDO Ann Htg Wind 99.6% Condns WS=>MCDB, ! Name
  -5.5,                                   ! Maximum Dry-Bulb Temperature {C}
  0,                                      ! Daily Dry-Bulb Temperature Range {deltaC}
  -5.5,                                   ! Humidity Indicating Conditions at Maximum Dry-Bulb {BasedOnField A3}
  98816,                                  ! Barometric Pressure {Pa}
  12.7,                                   ! Wind Speed {m/s}
  240,                                    ! Wind Direction {deg}
  0,                                      ! Sky Clearness
  0,                                      ! Rain Indicator
  0,                                      ! Snow Indicator
  21,                                     ! Day of Month
  1,                                      ! Month
  WinterDesignDay,                        ! Day Type
  0,                                      ! Daylight Saving Time Indicator
  Wetbulb,                                ! Humidity Indicating Type
  ,                                       ! Humidity Indicating Day Schedule Name
  DefaultMultipliers,                     ! Dry-Bulb Temperature Range Modifier Type
  ,                                       ! Dry-Bulb Temperature Range Modifier Schedule Name
  ASHRAEClearSky;                         ! Solar Model Indicator

OS:ComponentData,
  {3fa5621e-c7ff-4c3e-8667-c1fe35708750}, ! Handle
  Component Data 1,                       ! Name
  {d5e96354-da31-415e-95ad-02e1755dd593}, ! UUID
  {87e0036a-4c27-437f-a8f9-1fbb92cc92cd}, ! Version UUID
  1366309844,                             ! Creation Timestamp
  1366309844,                             ! Version Timestamp
  {1a3c7a99-232a-4ed0-a69c-4f92be4c6eaa}; ! Name of Object 1

