
OS:Version,
  {f4edb327-704a-4fbb-96dc-d92d03fc83d0}, ! Handle
  0.9.3;                                  ! Version Identifier

OS:SizingPeriod:DesignDay,
  {760dd6db-2189-49ed-ab1e-a9aa451f2e02}, ! Handle
  Shreveport Regional Arpt Ann Clg 1% Condns DP=>MDB, ! Name
  28.3,                                   ! Maximum Dry-Bulb Temperature {C}
  10.7,                                   ! Daily Dry-Bulb Temperature Range {deltaC}
  24.3,                                   ! Humidity Indicating Conditions at Maximum Dry-Bulb {BasedOnField A3}
  100403,                                 ! Barometric Pressure {Pa}
  3.3,                                    ! Wind Speed {m/s}
  180,                                    ! Wind Direction {deg}
  0,                                      ! Sky Clearness
  0,                                      ! Rain Indicator
  0,                                      ! Snow Indicator
  21,                                     ! Day of Month
  7,                                      ! Month
  SummerDesignDay,                        ! Day Type
  0,                                      ! Daylight Saving Time Indicator
  Dewpoint,                               ! Humidity Indicating Type
  ,                                       ! Humidity Indicating Day Schedule Name
  DefaultMultipliers,                     ! Dry-Bulb Temperature Range Modifier Type
  ,                                       ! Dry-Bulb Temperature Range Modifier Schedule Name
  ASHRAETau,                              ! Solar Model Indicator
  ,                                       ! Beam Solar Day Schedule Name
  ,                                       ! Diffuse Solar Day Schedule Name
  0.489,                                  ! ASHRAE Taub {dimensionless}
  2.014;                                  ! ASHRAE Taud {dimensionless}

OS:ComponentData,
  {76110be3-5067-4ef5-a900-6b035ba73dac}, ! Handle
  Component Data 1,                       ! Name
  {cd8c93c5-bd15-4027-8ced-c2f063e0b596}, ! UUID
  {3f8e458a-522a-4e1c-8a2c-db3740b59204}, ! Version UUID
  1366307774,                             ! Creation Timestamp
  1366307774,                             ! Version Timestamp
  {760dd6db-2189-49ed-ab1e-a9aa451f2e02}; ! Name of Object 1

