
OS:Version,
  {6a11f530-d741-4bc6-961b-bfc586161dc5}, ! Handle
  0.9.3;                                  ! Version Identifier

OS:SizingPeriod:DesignDay,
  {385d460a-0ee1-45c1-bf00-709174581682}, ! Handle
  Salt Lake City Ann Htg Wind 99.6% Condns WS=>MCDB, ! Name
  7,                                      ! Maximum Dry-Bulb Temperature {C}
  0,                                      ! Daily Dry-Bulb Temperature Range {deltaC}
  7,                                      ! Humidity Indicating Conditions at Maximum Dry-Bulb {BasedOnField A3}
  86779,                                  ! Barometric Pressure {Pa}
  12.6,                                   ! Wind Speed {m/s}
  150,                                    ! Wind Direction {deg}
  0,                                      ! Sky Clearness
  0,                                      ! Rain Indicator
  0,                                      ! Snow Indicator
  21,                                     ! Day of Month
  1,                                      ! Month
  WinterDesignDay,                        ! Day Type
  0,                                      ! Daylight Saving Time Indicator
  Wetbulb,                                ! Humidity Indicating Type
  ,                                       ! Humidity Indicating Day Schedule Name
  DefaultMultipliers,                     ! Dry-Bulb Temperature Range Modifier Type
  ,                                       ! Dry-Bulb Temperature Range Modifier Schedule Name
  ASHRAEClearSky;                         ! Solar Model Indicator

OS:ComponentData,
  {affb40fc-bada-40a7-9515-d22b33520144}, ! Handle
  Component Data 1,                       ! Name
  {7ab13c43-e981-4e02-882b-4c3b4e486798}, ! UUID
  {140aab33-fe8c-4618-b1ab-c57d72a37c9c}, ! Version UUID
  1366310992,                             ! Creation Timestamp
  1366310992,                             ! Version Timestamp
  {385d460a-0ee1-45c1-bf00-709174581682}; ! Name of Object 1

