
OS:Version,
  {840f1c7b-ab84-4b9a-840f-79ef3e73dd58}, ! Handle
  0.9.3;                                  ! Version Identifier

OS:SizingPeriod:DesignDay,
  {055a26b5-55d4-42b1-9008-7f4c785ed954}, ! Handle
  Pocatello Regional Ap Ann Htg Wind 99% Condns WS=>MCDB, ! Name
  2.4,                                    ! Maximum Dry-Bulb Temperature {C}
  0,                                      ! Daily Dry-Bulb Temperature Range {deltaC}
  2.4,                                    ! Humidity Indicating Conditions at Maximum Dry-Bulb {BasedOnField A3}
  86092,                                  ! Barometric Pressure {Pa}
  13.4,                                   ! Wind Speed {m/s}
  30,                                     ! Wind Direction {deg}
  0,                                      ! Sky Clearness
  0,                                      ! Rain Indicator
  0,                                      ! Snow Indicator
  21,                                     ! Day of Month
  12,                                     ! Month
  WinterDesignDay,                        ! Day Type
  0,                                      ! Daylight Saving Time Indicator
  Wetbulb,                                ! Humidity Indicating Type
  ,                                       ! Humidity Indicating Day Schedule Name
  DefaultMultipliers,                     ! Dry-Bulb Temperature Range Modifier Type
  ,                                       ! Dry-Bulb Temperature Range Modifier Schedule Name
  ASHRAEClearSky;                         ! Solar Model Indicator

OS:ComponentData,
  {5986ac4b-0c39-4a88-98ed-629be4a7871b}, ! Handle
  Component Data 1,                       ! Name
  {0b9e233c-5f77-48d1-b562-0c7f16832f00}, ! UUID
  {26ddcd2d-e48d-47a6-ad21-e24e4ac13f0e}, ! Version UUID
  1366307306,                             ! Creation Timestamp
  1366307306,                             ! Version Timestamp
  {055a26b5-55d4-42b1-9008-7f4c785ed954}; ! Name of Object 1

