
OS:Version,
  {0c784e8f-e7c6-4851-aaf0-c66b4da75be2}, ! Handle
  0.9.3;                                  ! Version Identifier

OS:SizingPeriod:DesignDay,
  {50a82cec-e6a7-44f5-9db1-78855f2f6f97}, ! Handle
  Minot Faa Ap Ann Hum_n 99% Condns DP=>MCDB, ! Name
  -25.8,                                  ! Maximum Dry-Bulb Temperature {C}
  0,                                      ! Daily Dry-Bulb Temperature Range {deltaC}
  -30.7,                                  ! Humidity Indicating Conditions at Maximum Dry-Bulb {BasedOnField A3}
  95198,                                  ! Barometric Pressure {Pa}
  5.4,                                    ! Wind Speed {m/s}
  280,                                    ! Wind Direction {deg}
  0,                                      ! Sky Clearness
  0,                                      ! Rain Indicator
  0,                                      ! Snow Indicator
  21,                                     ! Day of Month
  1,                                      ! Month
  WinterDesignDay,                        ! Day Type
  0,                                      ! Daylight Saving Time Indicator
  Dewpoint,                               ! Humidity Indicating Type
  ,                                       ! Humidity Indicating Day Schedule Name
  DefaultMultipliers,                     ! Dry-Bulb Temperature Range Modifier Type
  ,                                       ! Dry-Bulb Temperature Range Modifier Schedule Name
  ASHRAEClearSky;                         ! Solar Model Indicator

OS:ComponentData,
  {f892f18b-50ac-4f41-8edd-34c8453a001f}, ! Handle
  Component Data 1,                       ! Name
  {3ec55bca-889c-4968-8ef8-ae65c1ab732f}, ! UUID
  {7c3b6394-b470-4638-ab38-8ab4bb6f9f9a}, ! Version UUID
  1366309067,                             ! Creation Timestamp
  1366309067,                             ! Version Timestamp
  {50a82cec-e6a7-44f5-9db1-78855f2f6f97}; ! Name of Object 1

