
OS:Version,
  {8e281bae-29bf-432a-ac7d-59bd00abdd19}, ! Handle
  0.9.3;                                  ! Version Identifier

OS:SizingPeriod:DesignDay,
  {f1ba9c8a-e7c7-4af6-8c21-9e1c477f992c}, ! Handle
  Morgantown Hart Field Ann Clg .4% Condns WB=>MDB, ! Name
  29.1,                                   ! Maximum Dry-Bulb Temperature {C}
  10.7,                                   ! Daily Dry-Bulb Temperature Range {deltaC}
  24,                                     ! Humidity Indicating Conditions at Maximum Dry-Bulb {BasedOnField A3}
  96866,                                  ! Barometric Pressure {Pa}
  3.2,                                    ! Wind Speed {m/s}
  240,                                    ! Wind Direction {deg}
  0,                                      ! Sky Clearness
  0,                                      ! Rain Indicator
  0,                                      ! Snow Indicator
  21,                                     ! Day of Month
  7,                                      ! Month
  SummerDesignDay,                        ! Day Type
  0,                                      ! Daylight Saving Time Indicator
  Wetbulb,                                ! Humidity Indicating Type
  ,                                       ! Humidity Indicating Day Schedule Name
  DefaultMultipliers,                     ! Dry-Bulb Temperature Range Modifier Type
  ,                                       ! Dry-Bulb Temperature Range Modifier Schedule Name
  ASHRAETau,                              ! Solar Model Indicator
  ,                                       ! Beam Solar Day Schedule Name
  ,                                       ! Diffuse Solar Day Schedule Name
  0.5,                                    ! ASHRAE Taub {dimensionless}
  1.879;                                  ! ASHRAE Taud {dimensionless}

OS:ComponentData,
  {9125621c-884d-4894-aa85-11b05fc9f1b2}, ! Handle
  Component Data 1,                       ! Name
  {57b35695-78eb-4a18-adaa-d02ae9b3e25d}, ! UUID
  {bdcb60fc-ac64-4f39-9fa8-b7ee2146335f}, ! Version UUID
  1366311671,                             ! Creation Timestamp
  1366311671,                             ! Version Timestamp
  {f1ba9c8a-e7c7-4af6-8c21-9e1c477f992c}; ! Name of Object 1

