
OS:Version,
  {56cd2cdd-766a-4ee7-a305-a6f6b354071f}, ! Handle
  0.9.3;                                  ! Version Identifier

OS:SizingPeriod:DesignDay,
  {58802515-d373-43cc-b8ba-64131396b37e}, ! Handle
  South Bend Michiana Rgnl Ap Ann Clg .4% Condns DP=>MDB, ! Name
  28.5,                                   ! Maximum Dry-Bulb Temperature {C}
  10.4,                                   ! Daily Dry-Bulb Temperature Range {deltaC}
  23.7,                                   ! Humidity Indicating Conditions at Maximum Dry-Bulb {BasedOnField A3}
  98522,                                  ! Barometric Pressure {Pa}
  5.2,                                    ! Wind Speed {m/s}
  220,                                    ! Wind Direction {deg}
  0,                                      ! Sky Clearness
  0,                                      ! Rain Indicator
  0,                                      ! Snow Indicator
  21,                                     ! Day of Month
  7,                                      ! Month
  SummerDesignDay,                        ! Day Type
  0,                                      ! Daylight Saving Time Indicator
  Dewpoint,                               ! Humidity Indicating Type
  ,                                       ! Humidity Indicating Day Schedule Name
  DefaultMultipliers,                     ! Dry-Bulb Temperature Range Modifier Type
  ,                                       ! Dry-Bulb Temperature Range Modifier Schedule Name
  ASHRAETau,                              ! Solar Model Indicator
  ,                                       ! Beam Solar Day Schedule Name
  ,                                       ! Diffuse Solar Day Schedule Name
  0.433,                                  ! ASHRAE Taub {dimensionless}
  2.144;                                  ! ASHRAE Taud {dimensionless}

OS:ComponentData,
  {5a918f35-f147-44c2-8892-a1e203e5eb52}, ! Handle
  Component Data 1,                       ! Name
  {9f908711-5f70-4da2-aa44-6d5689051397}, ! UUID
  {38c3dccb-4764-4597-b2b3-61652a1c1b27}, ! Version UUID
  1366307484,                             ! Creation Timestamp
  1366307484,                             ! Version Timestamp
  {58802515-d373-43cc-b8ba-64131396b37e}; ! Name of Object 1

