
OS:Version,
  {62532308-dc49-470b-afaf-5515c072cb62}, ! Handle
  0.9.3;                                  ! Version Identifier

OS:SizingPeriod:DesignDay,
  {4a5198ba-9059-4e49-b99a-8e6d37ed3037}, ! Handle
  Ottumwa Industrial Ap Ann Clg .4% Condns WB=>MDB, ! Name
  31.8,                                   ! Maximum Dry-Bulb Temperature {C}
  10.4,                                   ! Daily Dry-Bulb Temperature Range {deltaC}
  25.8,                                   ! Humidity Indicating Conditions at Maximum Dry-Bulb {BasedOnField A3}
  98275,                                  ! Barometric Pressure {Pa}
  6.2,                                    ! Wind Speed {m/s}
  190,                                    ! Wind Direction {deg}
  0,                                      ! Sky Clearness
  0,                                      ! Rain Indicator
  0,                                      ! Snow Indicator
  21,                                     ! Day of Month
  7,                                      ! Month
  SummerDesignDay,                        ! Day Type
  0,                                      ! Daylight Saving Time Indicator
  Wetbulb,                                ! Humidity Indicating Type
  ,                                       ! Humidity Indicating Day Schedule Name
  DefaultMultipliers,                     ! Dry-Bulb Temperature Range Modifier Type
  ,                                       ! Dry-Bulb Temperature Range Modifier Schedule Name
  ASHRAETau,                              ! Solar Model Indicator
  ,                                       ! Beam Solar Day Schedule Name
  ,                                       ! Diffuse Solar Day Schedule Name
  0.44,                                   ! ASHRAE Taub {dimensionless}
  2.113;                                  ! ASHRAE Taud {dimensionless}

OS:ComponentData,
  {90a6fcea-e7ef-4c97-b257-e18ab12c6b20}, ! Handle
  Component Data 1,                       ! Name
  {ec2f831d-e1ff-4b03-b579-29e3b3328380}, ! UUID
  {fe8c5c27-2f85-4e43-95bf-8997e80ee596}, ! Version UUID
  1366307226,                             ! Creation Timestamp
  1366307226,                             ! Version Timestamp
  {4a5198ba-9059-4e49-b99a-8e6d37ed3037}; ! Name of Object 1

