
OS:Version,
  {175c7bf8-c542-44e7-9c35-bbd632720e87}, ! Handle
  0.9.3;                                  ! Version Identifier

OS:SizingPeriod:DesignDay,
  {8d45272f-80ae-4014-8b9c-bda4c3445a79}, ! Handle
  Marshfield Muni Ann Clg 2% Condns WB=>MDB, ! Name
  26.3,                                   ! Maximum Dry-Bulb Temperature {C}
  11.2,                                   ! Daily Dry-Bulb Temperature Range {deltaC}
  21.9,                                   ! Humidity Indicating Conditions at Maximum Dry-Bulb {BasedOnField A3}
  96738,                                  ! Barometric Pressure {Pa}
  4.2,                                    ! Wind Speed {m/s}
  190,                                    ! Wind Direction {deg}
  0,                                      ! Sky Clearness
  0,                                      ! Rain Indicator
  0,                                      ! Snow Indicator
  21,                                     ! Day of Month
  7,                                      ! Month
  SummerDesignDay,                        ! Day Type
  0,                                      ! Daylight Saving Time Indicator
  Wetbulb,                                ! Humidity Indicating Type
  ,                                       ! Humidity Indicating Day Schedule Name
  DefaultMultipliers,                     ! Dry-Bulb Temperature Range Modifier Type
  ,                                       ! Dry-Bulb Temperature Range Modifier Schedule Name
  ASHRAETau,                              ! Solar Model Indicator
  ,                                       ! Beam Solar Day Schedule Name
  ,                                       ! Diffuse Solar Day Schedule Name
  0.412,                                  ! ASHRAE Taub {dimensionless}
  2.17;                                   ! ASHRAE Taud {dimensionless}

