
OS:Version,
  {13bbf567-dc5a-45e2-af04-018b4eb28503}, ! Handle
  0.9.3;                                  ! Version Identifier

OS:SizingPeriod:DesignDay,
  {279f4bc5-eb2d-41cf-a40b-bd9455825bce}, ! Handle
  Oxford  Awos Ann Clg 1% Condns DB=>MWB, ! Name
  28.8,                                   ! Maximum Dry-Bulb Temperature {C}
  10.3,                                   ! Daily Dry-Bulb Temperature Range {deltaC}
  21.6,                                   ! Humidity Indicating Conditions at Maximum Dry-Bulb {BasedOnField A3}
  98686,                                  ! Barometric Pressure {Pa}
  2.7,                                    ! Wind Speed {m/s}
  300,                                    ! Wind Direction {deg}
  0,                                      ! Sky Clearness
  0,                                      ! Rain Indicator
  0,                                      ! Snow Indicator
  21,                                     ! Day of Month
  7,                                      ! Month
  SummerDesignDay,                        ! Day Type
  0,                                      ! Daylight Saving Time Indicator
  Wetbulb,                                ! Humidity Indicating Type
  ,                                       ! Humidity Indicating Day Schedule Name
  DefaultMultipliers,                     ! Dry-Bulb Temperature Range Modifier Type
  ,                                       ! Dry-Bulb Temperature Range Modifier Schedule Name
  ASHRAETau,                              ! Solar Model Indicator
  ,                                       ! Beam Solar Day Schedule Name
  ,                                       ! Diffuse Solar Day Schedule Name
  0.477,                                  ! ASHRAE Taub {dimensionless}
  1.955;                                  ! ASHRAE Taud {dimensionless}

OS:ComponentData,
  {8c9a7543-0803-4457-bec0-4f97578f248f}, ! Handle
  Component Data 1,                       ! Name
  {c74c28b5-b63d-4c02-bccd-399701c71d62}, ! UUID
  {42a7e25c-974b-4b8b-aa9c-e99c625399d4}, ! Version UUID
  1366306766,                             ! Creation Timestamp
  1366306766,                             ! Version Timestamp
  {279f4bc5-eb2d-41cf-a40b-bd9455825bce}; ! Name of Object 1

