
OS:Version,
  {477d972a-3d0f-4fa6-941b-5b81b2c6d8c6}, ! Handle
  0.9.3;                                  ! Version Identifier

OS:SizingPeriod:DesignDay,
  {1bdbb372-d04c-4ff1-8d86-58c08c02d772}, ! Handle
  Washington Ann Hum_n 99.6% Condns DP=>MCDB, ! Name
  -18.4,                                  ! Maximum Dry-Bulb Temperature {C}
  0,                                      ! Daily Dry-Bulb Temperature Range {deltaC}
  -23.8,                                  ! Humidity Indicating Conditions at Maximum Dry-Bulb {BasedOnField A3}
  98592,                                  ! Barometric Pressure {Pa}
  4.5,                                    ! Wind Speed {m/s}
  280,                                    ! Wind Direction {deg}
  0,                                      ! Sky Clearness
  0,                                      ! Rain Indicator
  0,                                      ! Snow Indicator
  21,                                     ! Day of Month
  1,                                      ! Month
  WinterDesignDay,                        ! Day Type
  0,                                      ! Daylight Saving Time Indicator
  Dewpoint,                               ! Humidity Indicating Type
  ,                                       ! Humidity Indicating Day Schedule Name
  DefaultMultipliers,                     ! Dry-Bulb Temperature Range Modifier Type
  ,                                       ! Dry-Bulb Temperature Range Modifier Schedule Name
  ASHRAEClearSky;                         ! Solar Model Indicator

OS:ComponentData,
  {bf5208ee-1115-40e1-8825-4d4ce1eeb1af}, ! Handle
  Component Data 1,                       ! Name
  {b264f340-bd91-45aa-bc93-cb697779fe19}, ! UUID
  {d83addcb-880b-4c29-aabc-77169aaaa24b}, ! Version UUID
  1366307248,                             ! Creation Timestamp
  1366307248,                             ! Version Timestamp
  {1bdbb372-d04c-4ff1-8d86-58c08c02d772}; ! Name of Object 1

