
OS:Version,
  {edfc1569-1029-4705-abf2-cdc64ea041fb}, ! Handle
  0.9.3;                                  ! Version Identifier

OS:SizingPeriod:DesignDay,
  {df3697e2-4617-4bc5-ab9f-98e106998d1a}, ! Handle
  St Clair County Int Ann Clg 1% Condns WB=>MDB, ! Name
  28,                                     ! Maximum Dry-Bulb Temperature {C}
  12.3,                                   ! Daily Dry-Bulb Temperature Range {deltaC}
  23.5,                                   ! Humidity Indicating Conditions at Maximum Dry-Bulb {BasedOnField A3}
  98969,                                  ! Barometric Pressure {Pa}
  3.6,                                    ! Wind Speed {m/s}
  170,                                    ! Wind Direction {deg}
  0,                                      ! Sky Clearness
  0,                                      ! Rain Indicator
  0,                                      ! Snow Indicator
  21,                                     ! Day of Month
  7,                                      ! Month
  SummerDesignDay,                        ! Day Type
  0,                                      ! Daylight Saving Time Indicator
  Wetbulb,                                ! Humidity Indicating Type
  ,                                       ! Humidity Indicating Day Schedule Name
  DefaultMultipliers,                     ! Dry-Bulb Temperature Range Modifier Type
  ,                                       ! Dry-Bulb Temperature Range Modifier Schedule Name
  ASHRAETau,                              ! Solar Model Indicator
  ,                                       ! Beam Solar Day Schedule Name
  ,                                       ! Diffuse Solar Day Schedule Name
  0.47,                                   ! ASHRAE Taub {dimensionless}
  1.976;                                  ! ASHRAE Taud {dimensionless}

OS:ComponentData,
  {b6f61015-9d87-4b60-a490-c8363a18769f}, ! Handle
  Component Data 1,                       ! Name
  {40a1d86c-1381-40e9-92bb-e069386f91e8}, ! UUID
  {ca8d5c14-b541-42b3-a921-65b0c9915759}, ! Version UUID
  1366308117,                             ! Creation Timestamp
  1366308117,                             ! Version Timestamp
  {df3697e2-4617-4bc5-ab9f-98e106998d1a}; ! Name of Object 1

