
OS:Version,
  {6f47a368-5d74-43ee-aad1-4bdd51b1fc60}, ! Handle
  0.9.3;                                  ! Version Identifier

OS:SizingPeriod:DesignDay,
  {8de61867-7b8a-40ca-b2e0-6df67c5e3e39}, ! Handle
  Pueblo Ann Clg 2% Condns DP=>MDB,       ! Name
  21,                                     ! Maximum Dry-Bulb Temperature {C}
  18,                                     ! Daily Dry-Bulb Temperature Range {deltaC}
  15.6,                                   ! Humidity Indicating Conditions at Maximum Dry-Bulb {BasedOnField A3}
  85191,                                  ! Barometric Pressure {Pa}
  5.1,                                    ! Wind Speed {m/s}
  120,                                    ! Wind Direction {deg}
  0,                                      ! Sky Clearness
  0,                                      ! Rain Indicator
  0,                                      ! Snow Indicator
  21,                                     ! Day of Month
  7,                                      ! Month
  SummerDesignDay,                        ! Day Type
  0,                                      ! Daylight Saving Time Indicator
  Dewpoint,                               ! Humidity Indicating Type
  ,                                       ! Humidity Indicating Day Schedule Name
  DefaultMultipliers,                     ! Dry-Bulb Temperature Range Modifier Type
  ,                                       ! Dry-Bulb Temperature Range Modifier Schedule Name
  ASHRAETau,                              ! Solar Model Indicator
  ,                                       ! Beam Solar Day Schedule Name
  ,                                       ! Diffuse Solar Day Schedule Name
  0.435,                                  ! ASHRAE Taub {dimensionless}
  1.969;                                  ! ASHRAE Taud {dimensionless}

OS:ComponentData,
  {b077fc9e-9b1e-41eb-8393-611b5d21a8e5}, ! Handle
  Component Data 1,                       ! Name
  {d85b01c8-8dc1-45be-8e5a-7db3a33a1fc2}, ! UUID
  {b2705d49-49d8-48af-bc8f-4563c292dad0}, ! Version UUID
  1366306729,                             ! Creation Timestamp
  1366306729,                             ! Version Timestamp
  {8de61867-7b8a-40ca-b2e0-6df67c5e3e39}; ! Name of Object 1

