
OS:Version,
  {386c4e1b-ed02-448d-b375-3356b8d2fcb6}, ! Handle
  0.9.3;                                  ! Version Identifier

OS:SizingPeriod:DesignDay,
  {b32bf676-00d2-4d5b-b10d-1f49ef52135e}, ! Handle
  Somerset Awos Ann Clg 1% Condns DP=>MDB, ! Name
  28.7,                                   ! Maximum Dry-Bulb Temperature {C}
  11.7,                                   ! Daily Dry-Bulb Temperature Range {deltaC}
  22.7,                                   ! Humidity Indicating Conditions at Maximum Dry-Bulb {BasedOnField A3}
  97971,                                  ! Barometric Pressure {Pa}
  2.3,                                    ! Wind Speed {m/s}
  250,                                    ! Wind Direction {deg}
  0,                                      ! Sky Clearness
  0,                                      ! Rain Indicator
  0,                                      ! Snow Indicator
  21,                                     ! Day of Month
  7,                                      ! Month
  SummerDesignDay,                        ! Day Type
  0,                                      ! Daylight Saving Time Indicator
  Dewpoint,                               ! Humidity Indicating Type
  ,                                       ! Humidity Indicating Day Schedule Name
  DefaultMultipliers,                     ! Dry-Bulb Temperature Range Modifier Type
  ,                                       ! Dry-Bulb Temperature Range Modifier Schedule Name
  ASHRAETau,                              ! Solar Model Indicator
  ,                                       ! Beam Solar Day Schedule Name
  ,                                       ! Diffuse Solar Day Schedule Name
  0.505,                                  ! ASHRAE Taub {dimensionless}
  1.881;                                  ! ASHRAE Taud {dimensionless}

OS:ComponentData,
  {60f5ca93-3b96-47ba-bf20-1890dce4c88b}, ! Handle
  Component Data 1,                       ! Name
  {b0ad5d5f-d410-47bd-ab30-f3072c1f45f0}, ! UUID
  {884947dc-822c-4a0a-b194-d1f342cfe1e1}, ! Version UUID
  1366307688,                             ! Creation Timestamp
  1366307688,                             ! Version Timestamp
  {b32bf676-00d2-4d5b-b10d-1f49ef52135e}; ! Name of Object 1

