
OS:Version,
  {6f8dca0a-ff43-40ac-9d90-9d15f0a36a71}, ! Handle
  0.9.3;                                  ! Version Identifier

OS:SizingPeriod:DesignDay,
  {f0cabeff-ae6a-4bf3-8dec-86104d6d0b9e}, ! Handle
  Manitowac Muni Awos Ann Hum_n 99% Condns DP=>MCDB, ! Name
  -16.5,                                  ! Maximum Dry-Bulb Temperature {C}
  0,                                      ! Daily Dry-Bulb Temperature Range {deltaC}
  -23.2,                                  ! Humidity Indicating Conditions at Maximum Dry-Bulb {BasedOnField A3}
  98969,                                  ! Barometric Pressure {Pa}
  5.4,                                    ! Wind Speed {m/s}
  280,                                    ! Wind Direction {deg}
  0,                                      ! Sky Clearness
  0,                                      ! Rain Indicator
  0,                                      ! Snow Indicator
  21,                                     ! Day of Month
  1,                                      ! Month
  WinterDesignDay,                        ! Day Type
  0,                                      ! Daylight Saving Time Indicator
  Dewpoint,                               ! Humidity Indicating Type
  ,                                       ! Humidity Indicating Day Schedule Name
  DefaultMultipliers,                     ! Dry-Bulb Temperature Range Modifier Type
  ,                                       ! Dry-Bulb Temperature Range Modifier Schedule Name
  ASHRAEClearSky;                         ! Solar Model Indicator

OS:ComponentData,
  {265bf356-938d-4312-b107-c3c4244160b6}, ! Handle
  Component Data 1,                       ! Name
  {bbf4deca-5e51-4e27-bd31-04c315b6e907}, ! UUID
  {2f72c65a-1a23-475a-88f6-ba4f5b73bf00}, ! Version UUID
  1366311536,                             ! Creation Timestamp
  1366311536,                             ! Version Timestamp
  {f0cabeff-ae6a-4bf3-8dec-86104d6d0b9e}; ! Name of Object 1

