
OS:Version,
  {d984583e-8cd4-47ea-af29-9a706523a9a4}, ! Handle
  0.9.3;                                  ! Version Identifier

OS:SizingPeriod:DesignDay,
  {feb6cb5d-5e9c-4d47-82e2-a63db348e456}, ! Handle
  San Diego Miramar Nas Ann Htg Wind 99% Condns WS=>MCDB, ! Name
  15.2,                                   ! Maximum Dry-Bulb Temperature {C}
  0,                                      ! Daily Dry-Bulb Temperature Range {deltaC}
  15.2,                                   ! Humidity Indicating Conditions at Maximum Dry-Bulb {BasedOnField A3}
  99654,                                  ! Barometric Pressure {Pa}
  7.1,                                    ! Wind Speed {m/s}
  90,                                     ! Wind Direction {deg}
  0,                                      ! Sky Clearness
  0,                                      ! Rain Indicator
  0,                                      ! Snow Indicator
  21,                                     ! Day of Month
  12,                                     ! Month
  WinterDesignDay,                        ! Day Type
  0,                                      ! Daylight Saving Time Indicator
  Wetbulb,                                ! Humidity Indicating Type
  ,                                       ! Humidity Indicating Day Schedule Name
  DefaultMultipliers,                     ! Dry-Bulb Temperature Range Modifier Type
  ,                                       ! Dry-Bulb Temperature Range Modifier Schedule Name
  ASHRAEClearSky;                         ! Solar Model Indicator

OS:ComponentData,
  {7dc9ea67-7a4b-403c-aaac-c9d78a1903ba}, ! Handle
  Component Data 1,                       ! Name
  {8929acaf-2271-46b9-aad8-ee0e3f3cce12}, ! UUID
  {05afed22-56d2-4c30-a13b-6c49457bf4ad}, ! Version UUID
  1366306577,                             ! Creation Timestamp
  1366306577,                             ! Version Timestamp
  {feb6cb5d-5e9c-4d47-82e2-a63db348e456}; ! Name of Object 1

