
OS:Version,
  {a18e82c2-ecec-45bf-94b4-3331ee8f117b}, ! Handle
  0.9.3;                                  ! Version Identifier

OS:SizingPeriod:DesignDay,
  {4a3c051f-c15c-4af4-b8b5-1f9232e36429}, ! Handle
  MCGRATH Ann Htg Wind 99% Condns WS=>MCDB, ! Name
  -8.5,                                   ! Maximum Dry-Bulb Temperature {C}
  0,                                      ! Daily Dry-Bulb Temperature Range {deltaC}
  -8.5,                                   ! Humidity Indicating Conditions at Maximum Dry-Bulb {BasedOnField A3}
  100094,                                 ! Barometric Pressure {Pa}
  7.8,                                    ! Wind Speed {m/s}
  300,                                    ! Wind Direction {deg}
  0,                                      ! Sky Clearness
  0,                                      ! Rain Indicator
  0,                                      ! Snow Indicator
  21,                                     ! Day of Month
  1,                                      ! Month
  WinterDesignDay,                        ! Day Type
  0,                                      ! Daylight Saving Time Indicator
  Wetbulb,                                ! Humidity Indicating Type
  ,                                       ! Humidity Indicating Day Schedule Name
  DefaultMultipliers,                     ! Dry-Bulb Temperature Range Modifier Type
  ,                                       ! Dry-Bulb Temperature Range Modifier Schedule Name
  ASHRAEClearSky;                         ! Solar Model Indicator

OS:ComponentData,
  {232715a0-1bcf-4fa7-b705-d8078135ff18}, ! Handle
  Component Data 1,                       ! Name
  {98c864c6-8619-49c3-8913-e312c300edc3}, ! UUID
  {109a6ae7-7124-461d-a961-af6bcb197148}, ! Version UUID
  1366305401,                             ! Creation Timestamp
  1366305401,                             ! Version Timestamp
  {4a3c051f-c15c-4af4-b8b5-1f9232e36429}; ! Name of Object 1

