
OS:Version,
  {94300017-36ba-4027-ab7f-86c2d38c33f0}, ! Handle
  0.9.3;                                  ! Version Identifier

OS:SizingPeriod:DesignDay,
  {385b5b83-80af-4e96-9f28-8c94595dee00}, ! Handle
  Pierre Municipal Ap Ann Clg 1% Condns DP=>MDB, ! Name
  26.9,                                   ! Maximum Dry-Bulb Temperature {C}
  14.3,                                   ! Daily Dry-Bulb Temperature Range {deltaC}
  20.6,                                   ! Humidity Indicating Conditions at Maximum Dry-Bulb {BasedOnField A3}
  95141,                                  ! Barometric Pressure {Pa}
  6.2,                                    ! Wind Speed {m/s}
  170,                                    ! Wind Direction {deg}
  0,                                      ! Sky Clearness
  0,                                      ! Rain Indicator
  0,                                      ! Snow Indicator
  21,                                     ! Day of Month
  7,                                      ! Month
  SummerDesignDay,                        ! Day Type
  0,                                      ! Daylight Saving Time Indicator
  Dewpoint,                               ! Humidity Indicating Type
  ,                                       ! Humidity Indicating Day Schedule Name
  DefaultMultipliers,                     ! Dry-Bulb Temperature Range Modifier Type
  ,                                       ! Dry-Bulb Temperature Range Modifier Schedule Name
  ASHRAETau,                              ! Solar Model Indicator
  ,                                       ! Beam Solar Day Schedule Name
  ,                                       ! Diffuse Solar Day Schedule Name
  0.427,                                  ! ASHRAE Taub {dimensionless}
  2.103;                                  ! ASHRAE Taud {dimensionless}

OS:ComponentData,
  {88e0d64c-453d-46e2-ab68-0d921cea2cd9}, ! Handle
  Component Data 1,                       ! Name
  {af2eae3a-0310-4854-bb55-69e66c23ae74}, ! UUID
  {4f427488-fa67-460a-ab39-4efde31544cc}, ! Version UUID
  1366310437,                             ! Creation Timestamp
  1366310437,                             ! Version Timestamp
  {385b5b83-80af-4e96-9f28-8c94595dee00}; ! Name of Object 1

