
OS:Version,
  {28c360d7-d6c0-4697-9772-7acf8b6d4485}, ! Handle
  0.9.3;                                  ! Version Identifier

OS:SizingPeriod:DesignDay,
  {69195bdc-fe2a-4925-8bba-e6fcd73c691e}, ! Handle
  Yakima Air Terminal Ann Clg 2% Condns WB=>MDB, ! Name
  30.1,                                   ! Maximum Dry-Bulb Temperature {C}
  17.9,                                   ! Daily Dry-Bulb Temperature Range {deltaC}
  18.4,                                   ! Humidity Indicating Conditions at Maximum Dry-Bulb {BasedOnField A3}
  97493,                                  ! Barometric Pressure {Pa}
  2.7,                                    ! Wind Speed {m/s}
  100,                                    ! Wind Direction {deg}
  0,                                      ! Sky Clearness
  0,                                      ! Rain Indicator
  0,                                      ! Snow Indicator
  21,                                     ! Day of Month
  7,                                      ! Month
  SummerDesignDay,                        ! Day Type
  0,                                      ! Daylight Saving Time Indicator
  Wetbulb,                                ! Humidity Indicating Type
  ,                                       ! Humidity Indicating Day Schedule Name
  DefaultMultipliers,                     ! Dry-Bulb Temperature Range Modifier Type
  ,                                       ! Dry-Bulb Temperature Range Modifier Schedule Name
  ASHRAETau,                              ! Solar Model Indicator
  ,                                       ! Beam Solar Day Schedule Name
  ,                                       ! Diffuse Solar Day Schedule Name
  0.395,                                  ! ASHRAE Taub {dimensionless}
  2.249;                                  ! ASHRAE Taud {dimensionless}

OS:ComponentData,
  {48338e7f-9a3d-4df7-99a2-68d5589c9dc6}, ! Handle
  Component Data 1,                       ! Name
  {2461ccdb-5617-483b-a06b-016943e09be3}, ! UUID
  {6950f45d-566d-444b-bc0c-d1039f849bf9}, ! Version UUID
  1366311453,                             ! Creation Timestamp
  1366311453,                             ! Version Timestamp
  {69195bdc-fe2a-4925-8bba-e6fcd73c691e}; ! Name of Object 1

