
OS:Version,
  {b5a106b3-1d31-467e-b5a9-73827892ee81}, ! Handle
  0.9.3;                                  ! Version Identifier

OS:SizingPeriod:DesignDay,
  {f9f93988-7092-4cdb-a5d8-850ac65ac8ee}, ! Handle
  Robert Gray Aaf Ann Clg 1% Condns DP=>MDB, ! Name
  26.7,                                   ! Maximum Dry-Bulb Temperature {C}
  12,                                     ! Daily Dry-Bulb Temperature Range {deltaC}
  23.1,                                   ! Humidity Indicating Conditions at Maximum Dry-Bulb {BasedOnField A3}
  97633,                                  ! Barometric Pressure {Pa}
  4.2,                                    ! Wind Speed {m/s}
  160,                                    ! Wind Direction {deg}
  0,                                      ! Sky Clearness
  0,                                      ! Rain Indicator
  0,                                      ! Snow Indicator
  21,                                     ! Day of Month
  8,                                      ! Month
  SummerDesignDay,                        ! Day Type
  0,                                      ! Daylight Saving Time Indicator
  Dewpoint,                               ! Humidity Indicating Type
  ,                                       ! Humidity Indicating Day Schedule Name
  DefaultMultipliers,                     ! Dry-Bulb Temperature Range Modifier Type
  ,                                       ! Dry-Bulb Temperature Range Modifier Schedule Name
  ASHRAETau,                              ! Solar Model Indicator
  ,                                       ! Beam Solar Day Schedule Name
  ,                                       ! Diffuse Solar Day Schedule Name
  0.443,                                  ! ASHRAE Taub {dimensionless}
  2.148;                                  ! ASHRAE Taud {dimensionless}

OS:ComponentData,
  {51733fbe-0952-4ce1-9729-e7daa08bc574}, ! Handle
  Component Data 1,                       ! Name
  {f0657b9a-6d88-4028-a04f-a4724d997b32}, ! UUID
  {238e7d02-7914-4d94-9432-8f0451da9c4a}, ! Version UUID
  1366310764,                             ! Creation Timestamp
  1366310764,                             ! Version Timestamp
  {f9f93988-7092-4cdb-a5d8-850ac65ac8ee}; ! Name of Object 1

