
OS:Version,
  {8e17c5c6-ee35-4184-b2eb-90cf1d84f9b1}, ! Handle
  0.9.3;                                  ! Version Identifier

OS:SizingPeriod:DesignDay,
  {9dcaccb7-e8d7-4f42-a23f-a59a82b300f4}, ! Handle
  Rapid City Ann Hum_n 99% Condns DP=>MCDB, ! Name
  -20.1,                                  ! Maximum Dry-Bulb Temperature {C}
  0,                                      ! Daily Dry-Bulb Temperature Range {deltaC}
  -24.7,                                  ! Humidity Indicating Conditions at Maximum Dry-Bulb {BasedOnField A3}
  90246,                                  ! Barometric Pressure {Pa}
  3.6,                                    ! Wind Speed {m/s}
  0,                                      ! Wind Direction {deg}
  0,                                      ! Sky Clearness
  0,                                      ! Rain Indicator
  0,                                      ! Snow Indicator
  21,                                     ! Day of Month
  1,                                      ! Month
  WinterDesignDay,                        ! Day Type
  0,                                      ! Daylight Saving Time Indicator
  Dewpoint,                               ! Humidity Indicating Type
  ,                                       ! Humidity Indicating Day Schedule Name
  DefaultMultipliers,                     ! Dry-Bulb Temperature Range Modifier Type
  ,                                       ! Dry-Bulb Temperature Range Modifier Schedule Name
  ASHRAEClearSky;                         ! Solar Model Indicator

OS:ComponentData,
  {a4bc154b-1eaf-4bef-8a5b-29c6f273cf51}, ! Handle
  Component Data 1,                       ! Name
  {762c3a80-57fe-4a1f-8cef-e6d6ec89bd58}, ! UUID
  {53c201e7-cae4-42b3-8b9c-8d1aaf623403}, ! Version UUID
  1366310445,                             ! Creation Timestamp
  1366310445,                             ! Version Timestamp
  {9dcaccb7-e8d7-4f42-a23f-a59a82b300f4}; ! Name of Object 1

