
OS:Version,
  {2046811a-4896-4d47-b5a4-b5a4ce5cb030}, ! Handle
  0.9.3;                                  ! Version Identifier

OS:SizingPeriod:DesignDay,
  {4307eb92-95c1-4289-bf85-7030e599e70e}, ! Handle
  SAN_ANTONIO Ann Clg .4% Condns Enth=>MDB, ! Name
  31.9,                                   ! Maximum Dry-Bulb Temperature {C}
  12.5,                                   ! Daily Dry-Bulb Temperature Range {deltaC}
  80500,                                  ! Humidity Indicating Conditions at Maximum Dry-Bulb {BasedOnField A3}
  98451,                                  ! Barometric Pressure {Pa}
  4.7,                                    ! Wind Speed {m/s}
  160,                                    ! Wind Direction {deg}
  0,                                      ! Sky Clearness
  0,                                      ! Rain Indicator
  0,                                      ! Snow Indicator
  21,                                     ! Day of Month
  8,                                      ! Month
  SummerDesignDay,                        ! Day Type
  0,                                      ! Daylight Saving Time Indicator
  Enthalpy,                               ! Humidity Indicating Type
  ,                                       ! Humidity Indicating Day Schedule Name
  DefaultMultipliers,                     ! Dry-Bulb Temperature Range Modifier Type
  ,                                       ! Dry-Bulb Temperature Range Modifier Schedule Name
  ASHRAETau,                              ! Solar Model Indicator
  ,                                       ! Beam Solar Day Schedule Name
  ,                                       ! Diffuse Solar Day Schedule Name
  0.45,                                   ! ASHRAE Taub {dimensionless}
  2.14;                                   ! ASHRAE Taud {dimensionless}

OS:ComponentData,
  {7e70f4cd-8f07-4b84-bc8a-64c3bf8719fa}, ! Handle
  Component Data 1,                       ! Name
  {0903c89c-ac49-4173-833e-71762e458f95}, ! UUID
  {fb3ac172-2081-4c11-9eaf-c2debec9f14d}, ! Version UUID
  1366310891,                             ! Creation Timestamp
  1366310891,                             ! Version Timestamp
  {4307eb92-95c1-4289-bf85-7030e599e70e}; ! Name of Object 1

