
OS:Version,
  {c5f73507-fd90-4977-ba29-d3854b4030f7}, ! Handle
  0.9.3;                                  ! Version Identifier

OS:SizingPeriod:DesignDay,
  {4f4befc2-85be-4015-be21-ed65c781b5ee}, ! Handle
  Montpelier Ap Ann Clg .4% Condns DP=>MDB, ! Name
  25.2,                                   ! Maximum Dry-Bulb Temperature {C}
  11.3,                                   ! Daily Dry-Bulb Temperature Range {deltaC}
  20.9,                                   ! Humidity Indicating Conditions at Maximum Dry-Bulb {BasedOnField A3}
  97272,                                  ! Barometric Pressure {Pa}
  3.8,                                    ! Wind Speed {m/s}
  220,                                    ! Wind Direction {deg}
  0,                                      ! Sky Clearness
  0,                                      ! Rain Indicator
  0,                                      ! Snow Indicator
  21,                                     ! Day of Month
  7,                                      ! Month
  SummerDesignDay,                        ! Day Type
  0,                                      ! Daylight Saving Time Indicator
  Dewpoint,                               ! Humidity Indicating Type
  ,                                       ! Humidity Indicating Day Schedule Name
  DefaultMultipliers,                     ! Dry-Bulb Temperature Range Modifier Type
  ,                                       ! Dry-Bulb Temperature Range Modifier Schedule Name
  ASHRAETau,                              ! Solar Model Indicator
  ,                                       ! Beam Solar Day Schedule Name
  ,                                       ! Diffuse Solar Day Schedule Name
  0.435,                                  ! ASHRAE Taub {dimensionless}
  2.069;                                  ! ASHRAE Taud {dimensionless}

OS:ComponentData,
  {30d339f0-0fb2-46cc-894d-c7350ef06a02}, ! Handle
  Component Data 1,                       ! Name
  {b1d06509-8ea7-46ba-926c-4e50979de00d}, ! UUID
  {0f332a8a-6c99-4d59-82cc-4c02abd6fe95}, ! Version UUID
  1366311252,                             ! Creation Timestamp
  1366311252,                             ! Version Timestamp
  {4f4befc2-85be-4015-be21-ed65c781b5ee}; ! Name of Object 1

