
OS:Version,
  {6e3fdb46-33ea-409a-be65-319eca925f58}, ! Handle
  0.9.3;                                  ! Version Identifier

OS:SizingPeriod:DesignDay,
  {bb7d0a60-2424-466c-a559-27412bb99c98}, ! Handle
  Mora Muni  Awos Ann Hum_n 99.6% Condns DP=>MCDB, ! Name
  -27.4,                                  ! Maximum Dry-Bulb Temperature {C}
  0,                                      ! Daily Dry-Bulb Temperature Range {deltaC}
  -32.8,                                  ! Humidity Indicating Conditions at Maximum Dry-Bulb {BasedOnField A3}
  97668,                                  ! Barometric Pressure {Pa}
  1.1,                                    ! Wind Speed {m/s}
  320,                                    ! Wind Direction {deg}
  0,                                      ! Sky Clearness
  0,                                      ! Rain Indicator
  0,                                      ! Snow Indicator
  21,                                     ! Day of Month
  1,                                      ! Month
  WinterDesignDay,                        ! Day Type
  0,                                      ! Daylight Saving Time Indicator
  Dewpoint,                               ! Humidity Indicating Type
  ,                                       ! Humidity Indicating Day Schedule Name
  DefaultMultipliers,                     ! Dry-Bulb Temperature Range Modifier Type
  ,                                       ! Dry-Bulb Temperature Range Modifier Schedule Name
  ASHRAEClearSky;                         ! Solar Model Indicator

OS:ComponentData,
  {8688570c-a3af-4fe5-894e-d0570b9d7bb1}, ! Handle
  Component Data 1,                       ! Name
  {d0dabe0d-4d6d-40ea-b51a-5c0e05912954}, ! UUID
  {5f44659e-c90b-4667-bbc1-ac38744db049}, ! Version UUID
  1366308329,                             ! Creation Timestamp
  1366308329,                             ! Version Timestamp
  {bb7d0a60-2424-466c-a559-27412bb99c98}; ! Name of Object 1

