
OS:Version,
  {19984384-5f8f-4625-9bc0-0c8e4f014c1a}, ! Handle
  0.9.3;                                  ! Version Identifier

OS:SizingPeriod:DesignDay,
  {c015daaa-b184-4697-8d60-12715f40f1f5}, ! Handle
  Panama City Bay Co Ann Clg 1% Condns DP=>MDB, ! Name
  28.7,                                   ! Maximum Dry-Bulb Temperature {C}
  7.6,                                    ! Daily Dry-Bulb Temperature Range {deltaC}
  26.1,                                   ! Humidity Indicating Conditions at Maximum Dry-Bulb {BasedOnField A3}
  101253,                                 ! Barometric Pressure {Pa}
  4.1,                                    ! Wind Speed {m/s}
  260,                                    ! Wind Direction {deg}
  0,                                      ! Sky Clearness
  0,                                      ! Rain Indicator
  0,                                      ! Snow Indicator
  21,                                     ! Day of Month
  7,                                      ! Month
  SummerDesignDay,                        ! Day Type
  0,                                      ! Daylight Saving Time Indicator
  Dewpoint,                               ! Humidity Indicating Type
  ,                                       ! Humidity Indicating Day Schedule Name
  DefaultMultipliers,                     ! Dry-Bulb Temperature Range Modifier Type
  ,                                       ! Dry-Bulb Temperature Range Modifier Schedule Name
  ASHRAETau,                              ! Solar Model Indicator
  ,                                       ! Beam Solar Day Schedule Name
  ,                                       ! Diffuse Solar Day Schedule Name
  0.522,                                  ! ASHRAE Taub {dimensionless}
  1.923;                                  ! ASHRAE Taud {dimensionless}

OS:ComponentData,
  {b8594947-5deb-4c8c-9c58-5256b6582918}, ! Handle
  Component Data 1,                       ! Name
  {4129d36c-7074-4985-a3aa-75afc05f1fe4}, ! UUID
  {f0359e8b-bbb5-4937-9a8e-8319722f9f7c}, ! Version UUID
  1366306899,                             ! Creation Timestamp
  1366306899,                             ! Version Timestamp
  {c015daaa-b184-4697-8d60-12715f40f1f5}; ! Name of Object 1

