
OS:Version,
  {d7504a01-6741-4e7f-bb08-5097567467a3}, ! Handle
  0.9.3;                                  ! Version Identifier

OS:SizingPeriod:DesignDay,
  {6980f769-a3c6-4799-be8e-61cb607cdee6}, ! Handle
  Oakland Ann Clg 1% Condns WB=>MDB,      ! Name
  24,                                     ! Maximum Dry-Bulb Temperature {C}
  7.4,                                    ! Daily Dry-Bulb Temperature Range {deltaC}
  18.8,                                   ! Humidity Indicating Conditions at Maximum Dry-Bulb {BasedOnField A3}
  101313,                                 ! Barometric Pressure {Pa}
  4.9,                                    ! Wind Speed {m/s}
  290,                                    ! Wind Direction {deg}
  0,                                      ! Sky Clearness
  0,                                      ! Rain Indicator
  0,                                      ! Snow Indicator
  21,                                     ! Day of Month
  8,                                      ! Month
  SummerDesignDay,                        ! Day Type
  0,                                      ! Daylight Saving Time Indicator
  Wetbulb,                                ! Humidity Indicating Type
  ,                                       ! Humidity Indicating Day Schedule Name
  DefaultMultipliers,                     ! Dry-Bulb Temperature Range Modifier Type
  ,                                       ! Dry-Bulb Temperature Range Modifier Schedule Name
  ASHRAETau,                              ! Solar Model Indicator
  ,                                       ! Beam Solar Day Schedule Name
  ,                                       ! Diffuse Solar Day Schedule Name
  0.367,                                  ! ASHRAE Taub {dimensionless}
  2.428;                                  ! ASHRAE Taud {dimensionless}

OS:ComponentData,
  {7f0838e9-46b1-4918-b1d4-5891aabd2faf}, ! Handle
  Component Data 1,                       ! Name
  {4d238c94-ab0f-43a1-ad86-08c1f14d779c}, ! UUID
  {30b70da7-2f7d-4679-9f8d-1f81f45c8efd}, ! Version UUID
  1366306521,                             ! Creation Timestamp
  1366306521,                             ! Version Timestamp
  {6980f769-a3c6-4799-be8e-61cb607cdee6}; ! Name of Object 1

