
OS:Version,
  {ecc804a1-10a9-4f85-8569-072d8d735607}, ! Handle
  0.9.3;                                  ! Version Identifier

OS:SizingPeriod:DesignDay,
  {24caa64f-4bd7-49b0-9db0-791a2eaf6ba1}, ! Handle
  Montpelier Ap Ann Htg Wind 99% Condns WS=>MCDB, ! Name
  -6,                                     ! Maximum Dry-Bulb Temperature {C}
  0,                                      ! Daily Dry-Bulb Temperature Range {deltaC}
  -6,                                     ! Humidity Indicating Conditions at Maximum Dry-Bulb {BasedOnField A3}
  97272,                                  ! Barometric Pressure {Pa}
  9.4,                                    ! Wind Speed {m/s}
  320,                                    ! Wind Direction {deg}
  0,                                      ! Sky Clearness
  0,                                      ! Rain Indicator
  0,                                      ! Snow Indicator
  21,                                     ! Day of Month
  1,                                      ! Month
  WinterDesignDay,                        ! Day Type
  0,                                      ! Daylight Saving Time Indicator
  Wetbulb,                                ! Humidity Indicating Type
  ,                                       ! Humidity Indicating Day Schedule Name
  DefaultMultipliers,                     ! Dry-Bulb Temperature Range Modifier Type
  ,                                       ! Dry-Bulb Temperature Range Modifier Schedule Name
  ASHRAEClearSky;                         ! Solar Model Indicator

OS:ComponentData,
  {c5696e3e-7ae4-4336-9200-612e58eebfd6}, ! Handle
  Component Data 1,                       ! Name
  {644e8095-12f9-4eb7-937b-f4fb98014d27}, ! UUID
  {71e84dd2-da70-4551-85e9-ee7455d2a3dd}, ! Version UUID
  1366311250,                             ! Creation Timestamp
  1366311250,                             ! Version Timestamp
  {24caa64f-4bd7-49b0-9db0-791a2eaf6ba1}; ! Name of Object 1

