
OS:Version,
  {fc9d40d3-f3bc-4314-a40e-5e635424db62}, ! Handle
  0.9.3;                                  ! Version Identifier

OS:SizingPeriod:DesignDay,
  {f3972ecb-4229-4656-a0b6-cf17968bc65f}, ! Handle
  New York J F Kennedy IntL Ar Ann Clg .4% Condns DP=>MDB, ! Name
  27,                                     ! Maximum Dry-Bulb Temperature {C}
  7.4,                                    ! Daily Dry-Bulb Temperature Range {deltaC}
  23.8,                                   ! Humidity Indicating Conditions at Maximum Dry-Bulb {BasedOnField A3}
  101265,                                 ! Barometric Pressure {Pa}
  5.6,                                    ! Wind Speed {m/s}
  230,                                    ! Wind Direction {deg}
  0,                                      ! Sky Clearness
  0,                                      ! Rain Indicator
  0,                                      ! Snow Indicator
  21,                                     ! Day of Month
  7,                                      ! Month
  SummerDesignDay,                        ! Day Type
  0,                                      ! Daylight Saving Time Indicator
  Dewpoint,                               ! Humidity Indicating Type
  ,                                       ! Humidity Indicating Day Schedule Name
  DefaultMultipliers,                     ! Dry-Bulb Temperature Range Modifier Type
  ,                                       ! Dry-Bulb Temperature Range Modifier Schedule Name
  ASHRAETau,                              ! Solar Model Indicator
  ,                                       ! Beam Solar Day Schedule Name
  ,                                       ! Diffuse Solar Day Schedule Name
  0.541,                                  ! ASHRAE Taub {dimensionless}
  1.8;                                    ! ASHRAE Taud {dimensionless}

OS:ComponentData,
  {8942d3e1-a519-4f30-93fe-212333a5d4da}, ! Handle
  Component Data 1,                       ! Name
  {123f8a80-6df8-4afc-b34a-1e1a2ea9a787}, ! UUID
  {c05f2e41-7f9a-49b2-95cc-ebf900b27ced}, ! Version UUID
  1366309666,                             ! Creation Timestamp
  1366309666,                             ! Version Timestamp
  {f3972ecb-4229-4656-a0b6-cf17968bc65f}; ! Name of Object 1

