
OS:Version,
  {46452c75-4d9c-468f-85e5-0f64b56bc33c}, ! Handle
  0.9.3;                                  ! Version Identifier

OS:SizingPeriod:DesignDay,
  {ee193de4-5c7b-4c27-aa4f-1889eb3f84e7}, ! Handle
  Mcguire Afb Ann Htg Wind 99.6% Condns WS=>MCDB, ! Name
  0.2,                                    ! Maximum Dry-Bulb Temperature {C}
  0,                                      ! Daily Dry-Bulb Temperature Range {deltaC}
  0.2,                                    ! Humidity Indicating Conditions at Maximum Dry-Bulb {BasedOnField A3}
  100786,                                 ! Barometric Pressure {Pa}
  12.4,                                   ! Wind Speed {m/s}
  350,                                    ! Wind Direction {deg}
  0,                                      ! Sky Clearness
  0,                                      ! Rain Indicator
  0,                                      ! Snow Indicator
  21,                                     ! Day of Month
  1,                                      ! Month
  WinterDesignDay,                        ! Day Type
  0,                                      ! Daylight Saving Time Indicator
  Wetbulb,                                ! Humidity Indicating Type
  ,                                       ! Humidity Indicating Day Schedule Name
  DefaultMultipliers,                     ! Dry-Bulb Temperature Range Modifier Type
  ,                                       ! Dry-Bulb Temperature Range Modifier Schedule Name
  ASHRAEClearSky;                         ! Solar Model Indicator

OS:ComponentData,
  {f3bec29b-3269-4d74-bb02-3df6ee0b7f7e}, ! Handle
  Component Data 1,                       ! Name
  {a912c9b5-f4ea-44d7-874e-31cab16dc0bd}, ! UUID
  {27e9f532-6352-48b8-b9bd-2ac63873f3d9}, ! Version UUID
  1366309312,                             ! Creation Timestamp
  1366309312,                             ! Version Timestamp
  {ee193de4-5c7b-4c27-aa4f-1889eb3f84e7}; ! Name of Object 1

