
OS:Version,
  {c68097b4-60fb-4cee-bb55-35b796840bfe}, ! Handle
  0.9.3;                                  ! Version Identifier

OS:SizingPeriod:DesignDay,
  {29af60e9-858f-4b96-bc01-b6bedd6b2c3e}, ! Handle
  Minneapolis Crystal Ann Hum_n 99.6% Condns DP=>MCDB, ! Name
  -21.6,                                  ! Maximum Dry-Bulb Temperature {C}
  0,                                      ! Daily Dry-Bulb Temperature Range {deltaC}
  -27.3,                                  ! Humidity Indicating Conditions at Maximum Dry-Bulb {BasedOnField A3}
  98182,                                  ! Barometric Pressure {Pa}
  3.5,                                    ! Wind Speed {m/s}
  310,                                    ! Wind Direction {deg}
  0,                                      ! Sky Clearness
  0,                                      ! Rain Indicator
  0,                                      ! Snow Indicator
  21,                                     ! Day of Month
  1,                                      ! Month
  WinterDesignDay,                        ! Day Type
  0,                                      ! Daylight Saving Time Indicator
  Dewpoint,                               ! Humidity Indicating Type
  ,                                       ! Humidity Indicating Day Schedule Name
  DefaultMultipliers,                     ! Dry-Bulb Temperature Range Modifier Type
  ,                                       ! Dry-Bulb Temperature Range Modifier Schedule Name
  ASHRAEClearSky;                         ! Solar Model Indicator

OS:ComponentData,
  {f53cc88a-04f8-45ce-930f-8eb0faa05a2b}, ! Handle
  Component Data 1,                       ! Name
  {2e523891-c304-4b77-bf06-f1b731bfe8fd}, ! UUID
  {909beb31-6f17-4a1d-89c4-3f562322f4e3}, ! Version UUID
  1366308305,                             ! Creation Timestamp
  1366308305,                             ! Version Timestamp
  {29af60e9-858f-4b96-bc01-b6bedd6b2c3e}; ! Name of Object 1

