
OS:Version,
  {7984f482-85b9-42c6-b217-da1a057035c0}, ! Handle
  0.9.3;                                  ! Version Identifier

OS:SizingPeriod:DesignDay,
  {f8ef312c-6c72-4438-8cc4-45b41bd31c07}, ! Handle
  OLYMPIA Ann Clg 2% Condns DP=>MDB,      ! Name
  20.3,                                   ! Maximum Dry-Bulb Temperature {C}
  14.6,                                   ! Daily Dry-Bulb Temperature Range {deltaC}
  14.7,                                   ! Humidity Indicating Conditions at Maximum Dry-Bulb {BasedOnField A3}
  100594,                                 ! Barometric Pressure {Pa}
  3.4,                                    ! Wind Speed {m/s}
  20,                                     ! Wind Direction {deg}
  0,                                      ! Sky Clearness
  0,                                      ! Rain Indicator
  0,                                      ! Snow Indicator
  21,                                     ! Day of Month
  8,                                      ! Month
  SummerDesignDay,                        ! Day Type
  0,                                      ! Daylight Saving Time Indicator
  Dewpoint,                               ! Humidity Indicating Type
  ,                                       ! Humidity Indicating Day Schedule Name
  DefaultMultipliers,                     ! Dry-Bulb Temperature Range Modifier Type
  ,                                       ! Dry-Bulb Temperature Range Modifier Schedule Name
  ASHRAETau,                              ! Solar Model Indicator
  ,                                       ! Beam Solar Day Schedule Name
  ,                                       ! Diffuse Solar Day Schedule Name
  0.359,                                  ! ASHRAE Taub {dimensionless}
  2.536;                                  ! ASHRAE Taud {dimensionless}

OS:ComponentData,
  {710b7fc6-e512-474d-81d4-49f6a41e058c}, ! Handle
  Component Data 1,                       ! Name
  {893dd2e1-4e16-4696-a1fd-2da47d2bd8e9}, ! UUID
  {76be5d36-9de7-42ec-a688-9ccd10a2e2bd}, ! Version UUID
  1366311305,                             ! Creation Timestamp
  1366311305,                             ! Version Timestamp
  {f8ef312c-6c72-4438-8cc4-45b41bd31c07}; ! Name of Object 1

