
OS:Version,
  {3790a8d8-7d9f-4db2-a8d4-5eb50a6e5351}, ! Handle
  0.9.3;                                  ! Version Identifier

OS:SizingPeriod:DesignDay,
  {afc1a7c5-8ee9-4dbc-aa20-9968e9aa61da}, ! Handle
  SAN_ANGELO Ann Clg 2% Condns WB=>MDB,   ! Name
  30.6,                                   ! Maximum Dry-Bulb Temperature {C}
  12.8,                                   ! Daily Dry-Bulb Temperature Range {deltaC}
  22.9,                                   ! Humidity Indicating Conditions at Maximum Dry-Bulb {BasedOnField A3}
  94526,                                  ! Barometric Pressure {Pa}
  4.9,                                    ! Wind Speed {m/s}
  170,                                    ! Wind Direction {deg}
  0,                                      ! Sky Clearness
  0,                                      ! Rain Indicator
  0,                                      ! Snow Indicator
  21,                                     ! Day of Month
  7,                                      ! Month
  SummerDesignDay,                        ! Day Type
  0,                                      ! Daylight Saving Time Indicator
  Wetbulb,                                ! Humidity Indicating Type
  ,                                       ! Humidity Indicating Day Schedule Name
  DefaultMultipliers,                     ! Dry-Bulb Temperature Range Modifier Type
  ,                                       ! Dry-Bulb Temperature Range Modifier Schedule Name
  ASHRAETau,                              ! Solar Model Indicator
  ,                                       ! Beam Solar Day Schedule Name
  ,                                       ! Diffuse Solar Day Schedule Name
  0.454,                                  ! ASHRAE Taub {dimensionless}
  2.053;                                  ! ASHRAE Taud {dimensionless}

OS:ComponentData,
  {b541b75d-4fdc-4f37-a324-d8ef8ee43548}, ! Handle
  Component Data 1,                       ! Name
  {183f4945-4f1e-41a3-a4d7-d8b96c36222f}, ! UUID
  {1bcc7404-7326-48aa-b9ce-91ea395bc291}, ! Version UUID
  1366310878,                             ! Creation Timestamp
  1366310878,                             ! Version Timestamp
  {afc1a7c5-8ee9-4dbc-aa20-9968e9aa61da}; ! Name of Object 1

