
OS:Version,
  {2f89a0a2-bee7-4d30-8851-6d9b1ee9951d}, ! Handle
  0.9.3;                                  ! Version Identifier

OS:SizingPeriod:DesignDay,
  {26ab10db-ff10-4165-9dfe-93d05d429c88}, ! Handle
  Sumter Shaw Afb Ann Clg 1% Condns WB=>MDB, ! Name
  30.9,                                   ! Maximum Dry-Bulb Temperature {C}
  10.4,                                   ! Daily Dry-Bulb Temperature Range {deltaC}
  25.3,                                   ! Humidity Indicating Conditions at Maximum Dry-Bulb {BasedOnField A3}
  100439,                                 ! Barometric Pressure {Pa}
  3.6,                                    ! Wind Speed {m/s}
  240,                                    ! Wind Direction {deg}
  0,                                      ! Sky Clearness
  0,                                      ! Rain Indicator
  0,                                      ! Snow Indicator
  21,                                     ! Day of Month
  7,                                      ! Month
  SummerDesignDay,                        ! Day Type
  0,                                      ! Daylight Saving Time Indicator
  Wetbulb,                                ! Humidity Indicating Type
  ,                                       ! Humidity Indicating Day Schedule Name
  DefaultMultipliers,                     ! Dry-Bulb Temperature Range Modifier Type
  ,                                       ! Dry-Bulb Temperature Range Modifier Schedule Name
  ASHRAETau,                              ! Solar Model Indicator
  ,                                       ! Beam Solar Day Schedule Name
  ,                                       ! Diffuse Solar Day Schedule Name
  0.57,                                   ! ASHRAE Taub {dimensionless}
  1.751;                                  ! ASHRAE Taud {dimensionless}

OS:ComponentData,
  {e88bab18-8366-43e5-a0a2-75898caa48e2}, ! Handle
  Component Data 1,                       ! Name
  {2b1dc8e6-9ebd-4d2b-9ae0-0d5d40612e54}, ! UUID
  {139dfbb1-1a6a-4d30-a7e2-40064a742e52}, ! Version UUID
  1366310380,                             ! Creation Timestamp
  1366310380,                             ! Version Timestamp
  {26ab10db-ff10-4165-9dfe-93d05d429c88}; ! Name of Object 1

