
OS:Version,
  {648b051a-d469-4502-840f-d26ce7dcd901}, ! Handle
  0.9.3;                                  ! Version Identifier

OS:SizingPeriod:DesignDay,
  {98b11c81-8ae3-49ba-aecc-48c0449fe970}, ! Handle
  St Paul Island Arpt Ann Clg .4% Condns WB=>MDB, ! Name
  12.1,                                   ! Maximum Dry-Bulb Temperature {C}
  3.1,                                    ! Daily Dry-Bulb Temperature Range {deltaC}
  11.3,                                   ! Humidity Indicating Conditions at Maximum Dry-Bulb {BasedOnField A3}
  101241,                                 ! Barometric Pressure {Pa}
  6,                                      ! Wind Speed {m/s}
  350,                                    ! Wind Direction {deg}
  0,                                      ! Sky Clearness
  0,                                      ! Rain Indicator
  0,                                      ! Snow Indicator
  21,                                     ! Day of Month
  8,                                      ! Month
  SummerDesignDay,                        ! Day Type
  0,                                      ! Daylight Saving Time Indicator
  Wetbulb,                                ! Humidity Indicating Type
  ,                                       ! Humidity Indicating Day Schedule Name
  DefaultMultipliers,                     ! Dry-Bulb Temperature Range Modifier Type
  ,                                       ! Dry-Bulb Temperature Range Modifier Schedule Name
  ASHRAETau,                              ! Solar Model Indicator
  ,                                       ! Beam Solar Day Schedule Name
  ,                                       ! Diffuse Solar Day Schedule Name
  0.39,                                   ! ASHRAE Taub {dimensionless}
  2.227;                                  ! ASHRAE Taud {dimensionless}

OS:ComponentData,
  {01e3ebdc-e4cf-4429-b53a-4285c039b3a3}, ! Handle
  Component Data 1,                       ! Name
  {e5334bac-617f-43c4-aea4-43013c7796f5}, ! UUID
  {0e21b0a8-47f4-493f-a343-9939e5bb19df}, ! Version UUID
  1366305577,                             ! Creation Timestamp
  1366305577,                             ! Version Timestamp
  {98b11c81-8ae3-49ba-aecc-48c0449fe970}; ! Name of Object 1

