
OS:Version,
  {fcb55b7d-e366-47bf-ae52-937ec564e529}, ! Handle
  0.9.3;                                  ! Version Identifier

OS:SizingPeriod:DesignDay,
  {288d9574-7bbd-4661-bd2a-438d5dcf7686}, ! Handle
  Mcconnell Afb Ann Clg 1% Condns DP=>MDB, ! Name
  27.7,                                   ! Maximum Dry-Bulb Temperature {C}
  11.9,                                   ! Daily Dry-Bulb Temperature Range {deltaC}
  22.7,                                   ! Humidity Indicating Conditions at Maximum Dry-Bulb {BasedOnField A3}
  96449,                                  ! Barometric Pressure {Pa}
  5.6,                                    ! Wind Speed {m/s}
  190,                                    ! Wind Direction {deg}
  0,                                      ! Sky Clearness
  0,                                      ! Rain Indicator
  0,                                      ! Snow Indicator
  21,                                     ! Day of Month
  7,                                      ! Month
  SummerDesignDay,                        ! Day Type
  0,                                      ! Daylight Saving Time Indicator
  Dewpoint,                               ! Humidity Indicating Type
  ,                                       ! Humidity Indicating Day Schedule Name
  DefaultMultipliers,                     ! Dry-Bulb Temperature Range Modifier Type
  ,                                       ! Dry-Bulb Temperature Range Modifier Schedule Name
  ASHRAETau,                              ! Solar Model Indicator
  ,                                       ! Beam Solar Day Schedule Name
  ,                                       ! Diffuse Solar Day Schedule Name
  0.419,                                  ! ASHRAE Taub {dimensionless}
  2.206;                                  ! ASHRAE Taud {dimensionless}

