
OS:Version,
  {c9c0d43e-caf8-4f21-b584-a7acda6c2c5c}, ! Handle
  0.9.3;                                  ! Version Identifier

OS:SizingPeriod:DesignDay,
  {1089ce18-3e7f-42e9-b095-99531cb3cbef}, ! Handle
  Yakutat State Arpt Ann Clg 1% Condns WB=>MDB, ! Name
  16.3,                                   ! Maximum Dry-Bulb Temperature {C}
  5.8,                                    ! Daily Dry-Bulb Temperature Range {deltaC}
  14,                                     ! Humidity Indicating Conditions at Maximum Dry-Bulb {BasedOnField A3}
  101229,                                 ! Barometric Pressure {Pa}
  3.4,                                    ! Wind Speed {m/s}
  320,                                    ! Wind Direction {deg}
  0,                                      ! Sky Clearness
  0,                                      ! Rain Indicator
  0,                                      ! Snow Indicator
  21,                                     ! Day of Month
  7,                                      ! Month
  SummerDesignDay,                        ! Day Type
  0,                                      ! Daylight Saving Time Indicator
  Wetbulb,                                ! Humidity Indicating Type
  ,                                       ! Humidity Indicating Day Schedule Name
  DefaultMultipliers,                     ! Dry-Bulb Temperature Range Modifier Type
  ,                                       ! Dry-Bulb Temperature Range Modifier Schedule Name
  ASHRAETau,                              ! Solar Model Indicator
  ,                                       ! Beam Solar Day Schedule Name
  ,                                       ! Diffuse Solar Day Schedule Name
  0.371,                                  ! ASHRAE Taub {dimensionless}
  2.194;                                  ! ASHRAE Taud {dimensionless}

OS:ComponentData,
  {1de8c001-b444-4333-8567-c5fa9d5a9945}, ! Handle
  Component Data 1,                       ! Name
  {60e28504-637b-4004-a40e-fe2f0801afaa}, ! UUID
  {3b804ed7-1e59-4044-9ffb-0f636e46e229}, ! Version UUID
  1366305631,                             ! Creation Timestamp
  1366305631,                             ! Version Timestamp
  {1089ce18-3e7f-42e9-b095-99531cb3cbef}; ! Name of Object 1

