
OS:Version,
  {0c660a36-ec40-4a10-80ba-3e335ac779af}, ! Handle
  0.9.3;                                  ! Version Identifier

OS:SizingPeriod:DesignDay,
  {1874140f-fa1b-4ef5-b5ef-bdb6c28a90b7}, ! Handle
  MINNEAPOLIS Ann Clg 2% Condns Enth=>MDB, ! Name
  27.8,                                   ! Maximum Dry-Bulb Temperature {C}
  9.9,                                    ! Daily Dry-Bulb Temperature Range {deltaC}
  68300,                                  ! Humidity Indicating Conditions at Maximum Dry-Bulb {BasedOnField A3}
  98299,                                  ! Barometric Pressure {Pa}
  6,                                      ! Wind Speed {m/s}
  180,                                    ! Wind Direction {deg}
  0,                                      ! Sky Clearness
  0,                                      ! Rain Indicator
  0,                                      ! Snow Indicator
  21,                                     ! Day of Month
  7,                                      ! Month
  SummerDesignDay,                        ! Day Type
  0,                                      ! Daylight Saving Time Indicator
  Enthalpy,                               ! Humidity Indicating Type
  ,                                       ! Humidity Indicating Day Schedule Name
  DefaultMultipliers,                     ! Dry-Bulb Temperature Range Modifier Type
  ,                                       ! Dry-Bulb Temperature Range Modifier Schedule Name
  ASHRAETau,                              ! Solar Model Indicator
  ,                                       ! Beam Solar Day Schedule Name
  ,                                       ! Diffuse Solar Day Schedule Name
  0.416,                                  ! ASHRAE Taub {dimensionless}
  2.18;                                   ! ASHRAE Taud {dimensionless}

OS:ComponentData,
  {47001e32-8cea-4466-8f57-4f16031e475e}, ! Handle
  Component Data 1,                       ! Name
  {2b616258-c8e3-43e2-94d5-05b22a2ed290}, ! UUID
  {c6b27802-eb33-410d-84c6-af17b510bbec}, ! Version UUID
  1366308314,                             ! Creation Timestamp
  1366308314,                             ! Version Timestamp
  {1874140f-fa1b-4ef5-b5ef-bdb6c28a90b7}; ! Name of Object 1

