
OS:Version,
  {48886594-ab8f-4919-b8be-eed467c227c6}, ! Handle
  0.9.3;                                  ! Version Identifier

OS:SizingPeriod:DesignDay,
  {f4519fd6-67f3-4ba7-84ac-9334c808c0ef}, ! Handle
  ST_PAUL Ann Clg .4% Condns DP=>MDB,     ! Name
  11.4,                                   ! Maximum Dry-Bulb Temperature {C}
  3.1,                                    ! Daily Dry-Bulb Temperature Range {deltaC}
  10.7,                                   ! Humidity Indicating Conditions at Maximum Dry-Bulb {BasedOnField A3}
  101241,                                 ! Barometric Pressure {Pa}
  6,                                      ! Wind Speed {m/s}
  350,                                    ! Wind Direction {deg}
  0,                                      ! Sky Clearness
  0,                                      ! Rain Indicator
  0,                                      ! Snow Indicator
  21,                                     ! Day of Month
  8,                                      ! Month
  SummerDesignDay,                        ! Day Type
  0,                                      ! Daylight Saving Time Indicator
  Dewpoint,                               ! Humidity Indicating Type
  ,                                       ! Humidity Indicating Day Schedule Name
  DefaultMultipliers,                     ! Dry-Bulb Temperature Range Modifier Type
  ,                                       ! Dry-Bulb Temperature Range Modifier Schedule Name
  ASHRAETau,                              ! Solar Model Indicator
  ,                                       ! Beam Solar Day Schedule Name
  ,                                       ! Diffuse Solar Day Schedule Name
  0.39,                                   ! ASHRAE Taub {dimensionless}
  2.227;                                  ! ASHRAE Taud {dimensionless}

OS:ComponentData,
  {b3254334-0262-41ae-9569-e62da3a7026e}, ! Handle
  Component Data 1,                       ! Name
  {6302bebc-9dc0-495e-9bde-b90467052b26}, ! UUID
  {a5136b6f-09b5-48e1-acd1-3883c90c2e3f}, ! Version UUID
  1366305574,                             ! Creation Timestamp
  1366305574,                             ! Version Timestamp
  {f4519fd6-67f3-4ba7-84ac-9334c808c0ef}; ! Name of Object 1

