
OS:Version,
  {2694bd1b-9f3c-40a2-a5ff-f785ec0f7a78}, ! Handle
  0.9.3;                                  ! Version Identifier

OS:SizingPeriod:DesignDay,
  {16c63346-ee2b-43ba-b307-3933c55f9634}, ! Handle
  Sacramento Metropolitan Ap Ann Clg .4% Condns Enth=>MDB, ! Name
  36.1,                                   ! Maximum Dry-Bulb Temperature {C}
  17.8,                                   ! Daily Dry-Bulb Temperature Range {deltaC}
  67300,                                  ! Humidity Indicating Conditions at Maximum Dry-Bulb {BasedOnField A3}
  101241,                                 ! Barometric Pressure {Pa}
  2.9,                                    ! Wind Speed {m/s}
  180,                                    ! Wind Direction {deg}
  0,                                      ! Sky Clearness
  0,                                      ! Rain Indicator
  0,                                      ! Snow Indicator
  21,                                     ! Day of Month
  7,                                      ! Month
  SummerDesignDay,                        ! Day Type
  0,                                      ! Daylight Saving Time Indicator
  Enthalpy,                               ! Humidity Indicating Type
  ,                                       ! Humidity Indicating Day Schedule Name
  DefaultMultipliers,                     ! Dry-Bulb Temperature Range Modifier Type
  ,                                       ! Dry-Bulb Temperature Range Modifier Schedule Name
  ASHRAETau,                              ! Solar Model Indicator
  ,                                       ! Beam Solar Day Schedule Name
  ,                                       ! Diffuse Solar Day Schedule Name
  0.379,                                  ! ASHRAE Taub {dimensionless}
  2.355;                                  ! ASHRAE Taud {dimensionless}

OS:ComponentData,
  {571c7363-0e8e-463e-9028-e167f5f721b3}, ! Handle
  Component Data 1,                       ! Name
  {f55ce9a6-492a-4394-b52b-5127486c694d}, ! UUID
  {2c815c8b-2bd5-4c5e-b16d-e006aaa610ed}, ! Version UUID
  1366306568,                             ! Creation Timestamp
  1366306568,                             ! Version Timestamp
  {16c63346-ee2b-43ba-b307-3933c55f9634}; ! Name of Object 1

