
OS:Version,
  {918a1795-12c1-4606-b74d-11321128c353}, ! Handle
  0.9.3;                                  ! Version Identifier

OS:SizingPeriod:DesignDay,
  {88a5c708-3a27-4e36-81f6-ed5421b7aa58}, ! Handle
  San Francisco Ann Clg 2% Condns DP=>MDB, ! Name
  18.7,                                   ! Maximum Dry-Bulb Temperature {C}
  8.5,                                    ! Daily Dry-Bulb Temperature Range {deltaC}
  14.7,                                   ! Humidity Indicating Conditions at Maximum Dry-Bulb {BasedOnField A3}
  101265,                                 ! Barometric Pressure {Pa}
  5.9,                                    ! Wind Speed {m/s}
  310,                                    ! Wind Direction {deg}
  0,                                      ! Sky Clearness
  0,                                      ! Rain Indicator
  0,                                      ! Snow Indicator
  21,                                     ! Day of Month
  8,                                      ! Month
  SummerDesignDay,                        ! Day Type
  0,                                      ! Daylight Saving Time Indicator
  Dewpoint,                               ! Humidity Indicating Type
  ,                                       ! Humidity Indicating Day Schedule Name
  DefaultMultipliers,                     ! Dry-Bulb Temperature Range Modifier Type
  ,                                       ! Dry-Bulb Temperature Range Modifier Schedule Name
  ASHRAETau,                              ! Solar Model Indicator
  ,                                       ! Beam Solar Day Schedule Name
  ,                                       ! Diffuse Solar Day Schedule Name
  0.365,                                  ! ASHRAE Taub {dimensionless}
  2.435;                                  ! ASHRAE Taud {dimensionless}

OS:ComponentData,
  {1c8d3378-7abe-4734-9559-290906548b73}, ! Handle
  Component Data 1,                       ! Name
  {a8e2827a-ef6b-4121-beb6-89016125f424}, ! UUID
  {bb0830db-06a9-4b6c-9200-8f124b70105d}, ! Version UUID
  1366306593,                             ! Creation Timestamp
  1366306593,                             ! Version Timestamp
  {88a5c708-3a27-4e36-81f6-ed5421b7aa58}; ! Name of Object 1

