
OS:Version,
  {252c32e7-ee38-4a95-b791-9a1ac9a2e3a9}, ! Handle
  0.9.3;                                  ! Version Identifier

OS:SizingPeriod:DesignDay,
  {5521a569-26b2-41d1-853f-dc37b2235d5e}, ! Handle
  Willow Grove Nas Ann Hum_n 99.6% Condns DP=>MCDB, ! Name
  -10.1,                                  ! Maximum Dry-Bulb Temperature {C}
  0,                                      ! Daily Dry-Bulb Temperature Range {deltaC}
  -20.5,                                  ! Humidity Indicating Conditions at Maximum Dry-Bulb {BasedOnField A3}
  100106,                                 ! Barometric Pressure {Pa}
  2.7,                                    ! Wind Speed {m/s}
  300,                                    ! Wind Direction {deg}
  0,                                      ! Sky Clearness
  0,                                      ! Rain Indicator
  0,                                      ! Snow Indicator
  21,                                     ! Day of Month
  1,                                      ! Month
  WinterDesignDay,                        ! Day Type
  0,                                      ! Daylight Saving Time Indicator
  Dewpoint,                               ! Humidity Indicating Type
  ,                                       ! Humidity Indicating Day Schedule Name
  DefaultMultipliers,                     ! Dry-Bulb Temperature Range Modifier Type
  ,                                       ! Dry-Bulb Temperature Range Modifier Schedule Name
  ASHRAEClearSky;                         ! Solar Model Indicator

OS:ComponentData,
  {eb765da6-cc70-4ed9-af29-6f838980e99c}, ! Handle
  Component Data 1,                       ! Name
  {bf11fee4-f4dd-4c9f-9dfd-8ca8be29e5ba}, ! UUID
  {93599b90-83c0-4bd6-bca8-8db067a2c805}, ! Version UUID
  1366310284,                             ! Creation Timestamp
  1366310284,                             ! Version Timestamp
  {5521a569-26b2-41d1-853f-dc37b2235d5e}; ! Name of Object 1

