
OS:Version,
  {459e029b-0eaa-4337-8b72-f32299b82cfe}, ! Handle
  0.9.3;                                  ! Version Identifier

OS:SizingPeriod:DesignDay,
  {755a73c0-2a49-49af-8051-f099efd871d6}, ! Handle
  Sherman-Denison Ann Clg .4% Condns WB=>MDB, ! Name
  33.5,                                   ! Maximum Dry-Bulb Temperature {C}
  13.1,                                   ! Daily Dry-Bulb Temperature Range {deltaC}
  25.8,                                   ! Humidity Indicating Conditions at Maximum Dry-Bulb {BasedOnField A3}
  98557,                                  ! Barometric Pressure {Pa}
  4,                                      ! Wind Speed {m/s}
  130,                                    ! Wind Direction {deg}
  0,                                      ! Sky Clearness
  0,                                      ! Rain Indicator
  0,                                      ! Snow Indicator
  21,                                     ! Day of Month
  8,                                      ! Month
  SummerDesignDay,                        ! Day Type
  0,                                      ! Daylight Saving Time Indicator
  Wetbulb,                                ! Humidity Indicating Type
  ,                                       ! Humidity Indicating Day Schedule Name
  DefaultMultipliers,                     ! Dry-Bulb Temperature Range Modifier Type
  ,                                       ! Dry-Bulb Temperature Range Modifier Schedule Name
  ASHRAETau,                              ! Solar Model Indicator
  ,                                       ! Beam Solar Day Schedule Name
  ,                                       ! Diffuse Solar Day Schedule Name
  0.477,                                  ! ASHRAE Taub {dimensionless}
  2.02;                                   ! ASHRAE Taud {dimensionless}

OS:ComponentData,
  {0a18272f-3635-42d8-869a-30175da1718e}, ! Handle
  Component Data 1,                       ! Name
  {a94ceed2-6dc7-42ca-9714-816b195fbe88}, ! UUID
  {91a923b0-bb75-4512-b42a-6e1b10114a26}, ! Version UUID
  1366310902,                             ! Creation Timestamp
  1366310902,                             ! Version Timestamp
  {755a73c0-2a49-49af-8051-f099efd871d6}; ! Name of Object 1

