
OS:Version,
  {7dfcd98e-44ac-4d51-9689-efb20fb0bc2a}, ! Handle
  0.9.3;                                  ! Version Identifier

OS:SizingPeriod:DesignDay,
  {2623d773-94cc-4d1e-b2d3-38654954f409}, ! Handle
  Visalia Muni  Awos Ann Hum_n 99.6% Condns DP=>MCDB, ! Name
  4.2,                                    ! Maximum Dry-Bulb Temperature {C}
  0,                                      ! Daily Dry-Bulb Temperature Range {deltaC}
  -3.7,                                   ! Humidity Indicating Conditions at Maximum Dry-Bulb {BasedOnField A3}
  100260,                                 ! Barometric Pressure {Pa}
  0.9,                                    ! Wind Speed {m/s}
  110,                                    ! Wind Direction {deg}
  0,                                      ! Sky Clearness
  0,                                      ! Rain Indicator
  0,                                      ! Snow Indicator
  21,                                     ! Day of Month
  12,                                     ! Month
  WinterDesignDay,                        ! Day Type
  0,                                      ! Daylight Saving Time Indicator
  Dewpoint,                               ! Humidity Indicating Type
  ,                                       ! Humidity Indicating Day Schedule Name
  DefaultMultipliers,                     ! Dry-Bulb Temperature Range Modifier Type
  ,                                       ! Dry-Bulb Temperature Range Modifier Schedule Name
  ASHRAEClearSky;                         ! Solar Model Indicator

OS:ComponentData,
  {73759856-92e8-4069-97f5-67e631e8cc9c}, ! Handle
  Component Data 1,                       ! Name
  {4208cdab-0b3b-466c-87e4-a39e5f251c34}, ! UUID
  {230ec519-cce5-44b6-93ee-9235abd216c5}, ! Version UUID
  1366306631,                             ! Creation Timestamp
  1366306631,                             ! Version Timestamp
  {2623d773-94cc-4d1e-b2d3-38654954f409}; ! Name of Object 1

