
OS:Version,
  {b195d909-e49e-4d82-934a-46e1ddfe50ba}, ! Handle
  0.9.3;                                  ! Version Identifier

OS:SizingPeriod:DesignDay,
  {e09ab94d-10c8-4fe8-8f07-e155521fd948}, ! Handle
  ROCHESTER Ann Clg 1% Condns WB=>MDB,    ! Name
  27.6,                                   ! Maximum Dry-Bulb Temperature {C}
  10.7,                                   ! Daily Dry-Bulb Temperature Range {deltaC}
  23.1,                                   ! Humidity Indicating Conditions at Maximum Dry-Bulb {BasedOnField A3}
  99311,                                  ! Barometric Pressure {Pa}
  5.2,                                    ! Wind Speed {m/s}
  240,                                    ! Wind Direction {deg}
  0,                                      ! Sky Clearness
  0,                                      ! Rain Indicator
  0,                                      ! Snow Indicator
  21,                                     ! Day of Month
  7,                                      ! Month
  SummerDesignDay,                        ! Day Type
  0,                                      ! Daylight Saving Time Indicator
  Wetbulb,                                ! Humidity Indicating Type
  ,                                       ! Humidity Indicating Day Schedule Name
  DefaultMultipliers,                     ! Dry-Bulb Temperature Range Modifier Type
  ,                                       ! Dry-Bulb Temperature Range Modifier Schedule Name
  ASHRAETau,                              ! Solar Model Indicator
  ,                                       ! Beam Solar Day Schedule Name
  ,                                       ! Diffuse Solar Day Schedule Name
  0.463,                                  ! ASHRAE Taub {dimensionless}
  2.001;                                  ! ASHRAE Taud {dimensionless}

OS:ComponentData,
  {928936cc-61b3-4784-9095-cfbf7f305856}, ! Handle
  Component Data 1,                       ! Name
  {bd58e048-87fd-4410-8dbb-14a8db99bdea}, ! UUID
  {f579d96c-a56a-4be7-b160-0dff2f11b82b}, ! Version UUID
  1366309724,                             ! Creation Timestamp
  1366309724,                             ! Version Timestamp
  {e09ab94d-10c8-4fe8-8f07-e155521fd948}; ! Name of Object 1

