
OS:Version,
  {fc4dd345-b4c2-46fa-8811-d7058fa70ac4}, ! Handle
  0.9.3;                                  ! Version Identifier

OS:SizingPeriod:DesignDay,
  {eda91473-0d0e-4744-b4b3-1792ec85d8a2}, ! Handle
  Mount Washington Ann Clg 2% Condns Enth=>MDB, ! Name
  13.5,                                   ! Maximum Dry-Bulb Temperature {C}
  4.8,                                    ! Daily Dry-Bulb Temperature Range {deltaC}
  42300,                                  ! Humidity Indicating Conditions at Maximum Dry-Bulb {BasedOnField A3}
  80387,                                  ! Barometric Pressure {Pa}
  8,                                      ! Wind Speed {m/s}
  280,                                    ! Wind Direction {deg}
  0,                                      ! Sky Clearness
  0,                                      ! Rain Indicator
  0,                                      ! Snow Indicator
  21,                                     ! Day of Month
  7,                                      ! Month
  SummerDesignDay,                        ! Day Type
  0,                                      ! Daylight Saving Time Indicator
  Enthalpy,                               ! Humidity Indicating Type
  ,                                       ! Humidity Indicating Day Schedule Name
  DefaultMultipliers,                     ! Dry-Bulb Temperature Range Modifier Type
  ,                                       ! Dry-Bulb Temperature Range Modifier Schedule Name
  ASHRAETau,                              ! Solar Model Indicator
  ,                                       ! Beam Solar Day Schedule Name
  ,                                       ! Diffuse Solar Day Schedule Name
  0.335,                                  ! ASHRAE Taub {dimensionless}
  2.359;                                  ! ASHRAE Taud {dimensionless}

