
OS:Version,
  {65125028-8442-4929-843f-67b2f9cd2a68}, ! Handle
  0.9.3;                                  ! Version Identifier

OS:SizingPeriod:DesignDay,
  {84bebe88-fcd9-4543-aa03-3405b96357e0}, ! Handle
  Nellis Afb Ann Clg .4% Condns DP=>MDB,  ! Name
  26.8,                                   ! Maximum Dry-Bulb Temperature {C}
  14.5,                                   ! Daily Dry-Bulb Temperature Range {deltaC}
  19.1,                                   ! Humidity Indicating Conditions at Maximum Dry-Bulb {BasedOnField A3}
  94628,                                  ! Barometric Pressure {Pa}
  4.6,                                    ! Wind Speed {m/s}
  220,                                    ! Wind Direction {deg}
  0,                                      ! Sky Clearness
  0,                                      ! Rain Indicator
  0,                                      ! Snow Indicator
  21,                                     ! Day of Month
  7,                                      ! Month
  SummerDesignDay,                        ! Day Type
  0,                                      ! Daylight Saving Time Indicator
  Dewpoint,                               ! Humidity Indicating Type
  ,                                       ! Humidity Indicating Day Schedule Name
  DefaultMultipliers,                     ! Dry-Bulb Temperature Range Modifier Type
  ,                                       ! Dry-Bulb Temperature Range Modifier Schedule Name
  ASHRAETau,                              ! Solar Model Indicator
  ,                                       ! Beam Solar Day Schedule Name
  ,                                       ! Diffuse Solar Day Schedule Name
  0.557,                                  ! ASHRAE Taub {dimensionless}
  1.66;                                   ! ASHRAE Taud {dimensionless}

OS:ComponentData,
  {7a3d2abf-8e63-4b43-80b2-59efce0c1643}, ! Handle
  Component Data 1,                       ! Name
  {f2287a9a-1db4-4677-8e88-61c6404d9398}, ! UUID
  {7b54e1a6-b14a-4399-9f8f-941219c28bd3}, ! Version UUID
  1366309527,                             ! Creation Timestamp
  1366309527,                             ! Version Timestamp
  {84bebe88-fcd9-4543-aa03-3405b96357e0}; ! Name of Object 1

