
OS:Version,
  {f453d554-8159-4fc6-969a-6073c9ec2a63}, ! Handle
  0.9.3;                                  ! Version Identifier

OS:SizingPeriod:DesignDay,
  {4fb41258-3747-47c9-a7ea-b78167756319}, ! Handle
  Waterloo Municipal Ap Ann Htg Wind 99.6% Condns WS=>MCDB, ! Name
  -12.4,                                  ! Maximum Dry-Bulb Temperature {C}
  0,                                      ! Daily Dry-Bulb Temperature Range {deltaC}
  -12.4,                                  ! Humidity Indicating Conditions at Maximum Dry-Bulb {BasedOnField A3}
  98193,                                  ! Barometric Pressure {Pa}
  14.3,                                   ! Wind Speed {m/s}
  310,                                    ! Wind Direction {deg}
  0,                                      ! Sky Clearness
  0,                                      ! Rain Indicator
  0,                                      ! Snow Indicator
  21,                                     ! Day of Month
  1,                                      ! Month
  WinterDesignDay,                        ! Day Type
  0,                                      ! Daylight Saving Time Indicator
  Wetbulb,                                ! Humidity Indicating Type
  ,                                       ! Humidity Indicating Day Schedule Name
  DefaultMultipliers,                     ! Dry-Bulb Temperature Range Modifier Type
  ,                                       ! Dry-Bulb Temperature Range Modifier Schedule Name
  ASHRAEClearSky;                         ! Solar Model Indicator

OS:ComponentData,
  {bc13d973-cf49-4888-b71c-e6736030bc06}, ! Handle
  Component Data 1,                       ! Name
  {5e89e698-053b-45c8-b2a4-be0b29bb5bde}, ! UUID
  {d614c54c-f3a1-40da-afe3-bd5eb00185f2}, ! Version UUID
  1366307254,                             ! Creation Timestamp
  1366307254,                             ! Version Timestamp
  {4fb41258-3747-47c9-a7ea-b78167756319}; ! Name of Object 1

