
OS:Version,
  {5a6c20a2-94c7-43cf-a770-05d1ed4d8d87}, ! Handle
  0.9.3;                                  ! Version Identifier

OS:SizingPeriod:DesignDay,
  {d0016105-d8f7-4573-baef-d2822449a220}, ! Handle
  Reno Tahoe International Ap Ann Clg .4% Condns WB=>MDB, ! Name
  31.8,                                   ! Maximum Dry-Bulb Temperature {C}
  18.8,                                   ! Daily Dry-Bulb Temperature Range {deltaC}
  17.8,                                   ! Humidity Indicating Conditions at Maximum Dry-Bulb {BasedOnField A3}
  86208,                                  ! Barometric Pressure {Pa}
  4.5,                                    ! Wind Speed {m/s}
  270,                                    ! Wind Direction {deg}
  0,                                      ! Sky Clearness
  0,                                      ! Rain Indicator
  0,                                      ! Snow Indicator
  21,                                     ! Day of Month
  7,                                      ! Month
  SummerDesignDay,                        ! Day Type
  0,                                      ! Daylight Saving Time Indicator
  Wetbulb,                                ! Humidity Indicating Type
  ,                                       ! Humidity Indicating Day Schedule Name
  DefaultMultipliers,                     ! Dry-Bulb Temperature Range Modifier Type
  ,                                       ! Dry-Bulb Temperature Range Modifier Schedule Name
  ASHRAETau,                              ! Solar Model Indicator
  ,                                       ! Beam Solar Day Schedule Name
  ,                                       ! Diffuse Solar Day Schedule Name
  0.398,                                  ! ASHRAE Taub {dimensionless}
  2.123;                                  ! ASHRAE Taud {dimensionless}

OS:ComponentData,
  {6d2183d4-b602-4bf0-99c1-201c09bbf6c7}, ! Handle
  Component Data 1,                       ! Name
  {af8900ed-c88b-461e-b7a2-21a28f1fe3c5}, ! UUID
  {43ec7eff-6f07-4e57-9796-5544458c8ebb}, ! Version UUID
  1366309536,                             ! Creation Timestamp
  1366309536,                             ! Version Timestamp
  {d0016105-d8f7-4573-baef-d2822449a220}; ! Name of Object 1

