
OS:Version,
  {da95d050-68df-4083-96a4-13dba8fdc61e}, ! Handle
  0.9.3;                                  ! Version Identifier

OS:SizingPeriod:DesignDay,
  {9b8df73a-629f-4e6a-b1f3-d38dba9c5ee2}, ! Handle
  Nashville International Ap Ann Clg 1% Condns WB=>MDB, ! Name
  31,                                     ! Maximum Dry-Bulb Temperature {C}
  10.2,                                   ! Daily Dry-Bulb Temperature Range {deltaC}
  25.1,                                   ! Humidity Indicating Conditions at Maximum Dry-Bulb {BasedOnField A3}
  99217,                                  ! Barometric Pressure {Pa}
  3.5,                                    ! Wind Speed {m/s}
  230,                                    ! Wind Direction {deg}
  0,                                      ! Sky Clearness
  0,                                      ! Rain Indicator
  0,                                      ! Snow Indicator
  21,                                     ! Day of Month
  7,                                      ! Month
  SummerDesignDay,                        ! Day Type
  0,                                      ! Daylight Saving Time Indicator
  Wetbulb,                                ! Humidity Indicating Type
  ,                                       ! Humidity Indicating Day Schedule Name
  DefaultMultipliers,                     ! Dry-Bulb Temperature Range Modifier Type
  ,                                       ! Dry-Bulb Temperature Range Modifier Schedule Name
  ASHRAETau,                              ! Solar Model Indicator
  ,                                       ! Beam Solar Day Schedule Name
  ,                                       ! Diffuse Solar Day Schedule Name
  0.524,                                  ! ASHRAE Taub {dimensionless}
  1.855;                                  ! ASHRAE Taud {dimensionless}

OS:ComponentData,
  {4ed7ccb1-f0f7-458d-95cb-8f956fe677f7}, ! Handle
  Component Data 1,                       ! Name
  {3562ad0c-c6b4-4460-bd60-32e1827da12a}, ! UUID
  {054239bf-5e6c-42c5-8562-011c8409d7c0}, ! Version UUID
  1366310543,                             ! Creation Timestamp
  1366310543,                             ! Version Timestamp
  {9b8df73a-629f-4e6a-b1f3-d38dba9c5ee2}; ! Name of Object 1

