
OS:Version,
  {449d9156-d142-4351-a334-2d442f0ac17c}, ! Handle
  0.9.3;                                  ! Version Identifier

OS:SizingPeriod:DesignDay,
  {c1eda80f-445f-421c-bb1a-ab714b7e2af3}, ! Handle
  Medford Rogue Valley Intl Ap Ann Clg .4% Condns WB=>MDB, ! Name
  34.4,                                   ! Maximum Dry-Bulb Temperature {C}
  17.9,                                   ! Daily Dry-Bulb Temperature Range {deltaC}
  20.5,                                   ! Humidity Indicating Conditions at Maximum Dry-Bulb {BasedOnField A3}
  94378,                                  ! Barometric Pressure {Pa}
  3.9,                                    ! Wind Speed {m/s}
  290,                                    ! Wind Direction {deg}
  0,                                      ! Sky Clearness
  0,                                      ! Rain Indicator
  0,                                      ! Snow Indicator
  21,                                     ! Day of Month
  7,                                      ! Month
  SummerDesignDay,                        ! Day Type
  0,                                      ! Daylight Saving Time Indicator
  Wetbulb,                                ! Humidity Indicating Type
  ,                                       ! Humidity Indicating Day Schedule Name
  DefaultMultipliers,                     ! Dry-Bulb Temperature Range Modifier Type
  ,                                       ! Dry-Bulb Temperature Range Modifier Schedule Name
  ASHRAETau,                              ! Solar Model Indicator
  ,                                       ! Beam Solar Day Schedule Name
  ,                                       ! Diffuse Solar Day Schedule Name
  0.356,                                  ! ASHRAE Taub {dimensionless}
  2.582;                                  ! ASHRAE Taud {dimensionless}

OS:ComponentData,
  {153abfd8-e665-4bc9-85af-084a2019be78}, ! Handle
  Component Data 1,                       ! Name
  {fd0d5cef-c496-46d9-8246-046a06f68768}, ! UUID
  {5f19291f-0a81-4f3e-b328-dc86c625fdd9}, ! Version UUID
  1366310036,                             ! Creation Timestamp
  1366310036,                             ! Version Timestamp
  {c1eda80f-445f-421c-bb1a-ab714b7e2af3}; ! Name of Object 1

