
OS:Version,
  {b05b6db4-8978-481a-8862-015cdff61b13}, ! Handle
  0.9.3;                                  ! Version Identifier

OS:SizingPeriod:DesignDay,
  {edb3318f-77b4-4cd6-9e26-1a93ef913d46}, ! Handle
  Providence T F Green State Ar Ann Clg .4% Condns DP=>MDB, ! Name
  26.8,                                   ! Maximum Dry-Bulb Temperature {C}
  9.6,                                    ! Daily Dry-Bulb Temperature Range {deltaC}
  23.3,                                   ! Humidity Indicating Conditions at Maximum Dry-Bulb {BasedOnField A3}
  101133,                                 ! Barometric Pressure {Pa}
  5.5,                                    ! Wind Speed {m/s}
  280,                                    ! Wind Direction {deg}
  0,                                      ! Sky Clearness
  0,                                      ! Rain Indicator
  0,                                      ! Snow Indicator
  21,                                     ! Day of Month
  7,                                      ! Month
  SummerDesignDay,                        ! Day Type
  0,                                      ! Daylight Saving Time Indicator
  Dewpoint,                               ! Humidity Indicating Type
  ,                                       ! Humidity Indicating Day Schedule Name
  DefaultMultipliers,                     ! Dry-Bulb Temperature Range Modifier Type
  ,                                       ! Dry-Bulb Temperature Range Modifier Schedule Name
  ASHRAETau,                              ! Solar Model Indicator
  ,                                       ! Beam Solar Day Schedule Name
  ,                                       ! Diffuse Solar Day Schedule Name
  0.507,                                  ! ASHRAE Taub {dimensionless}
  1.885;                                  ! ASHRAE Taud {dimensionless}

OS:ComponentData,
  {328bfef8-352f-43ec-b6c6-6c430351cae0}, ! Handle
  Component Data 1,                       ! Name
  {08ccc139-01c0-446a-b3eb-7edfa7b20ae2}, ! UUID
  {18301712-ed61-4fd6-baa0-35b761f9542f}, ! Version UUID
  1366310303,                             ! Creation Timestamp
  1366310303,                             ! Version Timestamp
  {edb3318f-77b4-4cd6-9e26-1a93ef913d46}; ! Name of Object 1

