
OS:Version,
  {1b71c8bf-5772-4e3f-bef9-4bf19bdcbd57}, ! Handle
  0.9.3;                                  ! Version Identifier

OS:SizingPeriod:DesignDay,
  {7e5313a0-ea64-4391-8fef-9809a372490e}, ! Handle
  Salisbury Wicomico Co Ap Ann Clg .4% Condns WB=>MDB, ! Name
  31.1,                                   ! Maximum Dry-Bulb Temperature {C}
  10.6,                                   ! Daily Dry-Bulb Temperature Range {deltaC}
  26.4,                                   ! Humidity Indicating Conditions at Maximum Dry-Bulb {BasedOnField A3}
  101145,                                 ! Barometric Pressure {Pa}
  4.4,                                    ! Wind Speed {m/s}
  240,                                    ! Wind Direction {deg}
  0,                                      ! Sky Clearness
  0,                                      ! Rain Indicator
  0,                                      ! Snow Indicator
  21,                                     ! Day of Month
  7,                                      ! Month
  SummerDesignDay,                        ! Day Type
  0,                                      ! Daylight Saving Time Indicator
  Wetbulb,                                ! Humidity Indicating Type
  ,                                       ! Humidity Indicating Day Schedule Name
  DefaultMultipliers,                     ! Dry-Bulb Temperature Range Modifier Type
  ,                                       ! Dry-Bulb Temperature Range Modifier Schedule Name
  ASHRAETau,                              ! Solar Model Indicator
  ,                                       ! Beam Solar Day Schedule Name
  ,                                       ! Diffuse Solar Day Schedule Name
  0.58,                                   ! ASHRAE Taub {dimensionless}
  1.711;                                  ! ASHRAE Taud {dimensionless}

OS:ComponentData,
  {2f89bb8f-0c35-43c6-8dff-cd0d798a6673}, ! Handle
  Component Data 1,                       ! Name
  {9f9e39ee-d7b4-4806-bc7d-fbb42cadac1a}, ! UUID
  {e7576794-c458-49e8-8f98-31213f0baf95}, ! Version UUID
  1366307861,                             ! Creation Timestamp
  1366307861,                             ! Version Timestamp
  {7e5313a0-ea64-4391-8fef-9809a372490e}; ! Name of Object 1

