
OS:Version,
  {4856fff2-6ae8-4d23-a8e1-20d7c508235c}, ! Handle
  0.9.3;                                  ! Version Identifier

OS:SizingPeriod:DesignDay,
  {c0e82d22-9706-4913-ad6e-a6d9221527bb}, ! Handle
  MADISON Ann Clg .4% Condns DB=>MWB,     ! Name
  32.1,                                   ! Maximum Dry-Bulb Temperature {C}
  11.1,                                   ! Daily Dry-Bulb Temperature Range {deltaC}
  23.5,                                   ! Humidity Indicating Conditions at Maximum Dry-Bulb {BasedOnField A3}
  98217,                                  ! Barometric Pressure {Pa}
  5.1,                                    ! Wind Speed {m/s}
  180,                                    ! Wind Direction {deg}
  0,                                      ! Sky Clearness
  0,                                      ! Rain Indicator
  0,                                      ! Snow Indicator
  21,                                     ! Day of Month
  7,                                      ! Month
  SummerDesignDay,                        ! Day Type
  0,                                      ! Daylight Saving Time Indicator
  Wetbulb,                                ! Humidity Indicating Type
  ,                                       ! Humidity Indicating Day Schedule Name
  DefaultMultipliers,                     ! Dry-Bulb Temperature Range Modifier Type
  ,                                       ! Dry-Bulb Temperature Range Modifier Schedule Name
  ASHRAETau,                              ! Solar Model Indicator
  ,                                       ! Beam Solar Day Schedule Name
  ,                                       ! Diffuse Solar Day Schedule Name
  0.435,                                  ! ASHRAE Taub {dimensionless}
  2.109;                                  ! ASHRAE Taud {dimensionless}

OS:ComponentData,
  {5609a5eb-44fd-41aa-a79e-4c2a4fd3651e}, ! Handle
  Component Data 1,                       ! Name
  {e03da152-3fac-483c-a8d2-d28f12da85e8}, ! UUID
  {2f39f3dd-65fe-40a8-982d-e2364ded0e73}, ! Version UUID
  1366311531,                             ! Creation Timestamp
  1366311531,                             ! Version Timestamp
  {c0e82d22-9706-4913-ad6e-a6d9221527bb}; ! Name of Object 1

