
OS:Version,
  {9d1d50d6-cbe9-4c41-a1da-f4e638ee2c23}, ! Handle
  0.9.3;                                  ! Version Identifier

OS:SizingPeriod:DesignDay,
  {694316d7-ce60-4bae-bede-eab396e818e6}, ! Handle
  New Orleans/Lakefront Ann Htg Wind 99% Condns WS=>MCDB, ! Name
  11.3,                                   ! Maximum Dry-Bulb Temperature {C}
  0,                                      ! Daily Dry-Bulb Temperature Range {deltaC}
  11.3,                                   ! Humidity Indicating Conditions at Maximum Dry-Bulb {BasedOnField A3}
  101289,                                 ! Barometric Pressure {Pa}
  9.4,                                    ! Wind Speed {m/s}
  10,                                     ! Wind Direction {deg}
  0,                                      ! Sky Clearness
  0,                                      ! Rain Indicator
  0,                                      ! Snow Indicator
  21,                                     ! Day of Month
  1,                                      ! Month
  WinterDesignDay,                        ! Day Type
  0,                                      ! Daylight Saving Time Indicator
  Wetbulb,                                ! Humidity Indicating Type
  ,                                       ! Humidity Indicating Day Schedule Name
  DefaultMultipliers,                     ! Dry-Bulb Temperature Range Modifier Type
  ,                                       ! Dry-Bulb Temperature Range Modifier Schedule Name
  ASHRAEClearSky;                         ! Solar Model Indicator

OS:ComponentData,
  {e6fabbc2-7654-4bf9-b3a4-a09bad003292}, ! Handle
  Component Data 1,                       ! Name
  {4fa25ab1-8fe5-4750-934d-4997a2b4a36a}, ! UUID
  {891338ae-3238-4284-bddb-ddb3f2e3139b}, ! Version UUID
  1366307750,                             ! Creation Timestamp
  1366307750,                             ! Version Timestamp
  {694316d7-ce60-4bae-bede-eab396e818e6}; ! Name of Object 1

