
OS:Version,
  {5375221c-6913-418d-8300-513185eeddfc}, ! Handle
  0.9.3;                                  ! Version Identifier

OS:SizingPeriod:DesignDay,
  {352abb04-b833-4261-841b-b97e81e4bb50}, ! Handle
  Riverside Muni Ann Clg 1% Condns WB=>MDB, ! Name
  33.1,                                   ! Maximum Dry-Bulb Temperature {C}
  16.4,                                   ! Daily Dry-Bulb Temperature Range {deltaC}
  22.2,                                   ! Humidity Indicating Conditions at Maximum Dry-Bulb {BasedOnField A3}
  98287,                                  ! Barometric Pressure {Pa}
  4.7,                                    ! Wind Speed {m/s}
  270,                                    ! Wind Direction {deg}
  0,                                      ! Sky Clearness
  0,                                      ! Rain Indicator
  0,                                      ! Snow Indicator
  21,                                     ! Day of Month
  7,                                      ! Month
  SummerDesignDay,                        ! Day Type
  0,                                      ! Daylight Saving Time Indicator
  Wetbulb,                                ! Humidity Indicating Type
  ,                                       ! Humidity Indicating Day Schedule Name
  DefaultMultipliers,                     ! Dry-Bulb Temperature Range Modifier Type
  ,                                       ! Dry-Bulb Temperature Range Modifier Schedule Name
  ASHRAETau,                              ! Solar Model Indicator
  ,                                       ! Beam Solar Day Schedule Name
  ,                                       ! Diffuse Solar Day Schedule Name
  0.461,                                  ! ASHRAE Taub {dimensionless}
  1.976;                                  ! ASHRAE Taud {dimensionless}

OS:ComponentData,
  {b3fec3fa-3cf2-41c5-9b44-2e3ac5794ca1}, ! Handle
  Component Data 1,                       ! Name
  {8337c802-06fb-479d-98d9-a2f2c3952295}, ! UUID
  {af046fa8-cbc0-4b16-b9e2-28b959b98bfd}, ! Version UUID
  1366306558,                             ! Creation Timestamp
  1366306558,                             ! Version Timestamp
  {352abb04-b833-4261-841b-b97e81e4bb50}; ! Name of Object 1

