
OS:Version,
  {5bf2b533-06b7-406d-8529-933a3324f86c}, ! Handle
  0.9.3;                                  ! Version Identifier

OS:SizingPeriod:DesignDay,
  {06684526-19c6-483d-abce-def1bb1010eb}, ! Handle
  Worchester Regional Arpt Ann Htg 99% Condns DB, ! Name
  -14.3,                                  ! Maximum Dry-Bulb Temperature {C}
  0,                                      ! Daily Dry-Bulb Temperature Range {deltaC}
  -14.3,                                  ! Humidity Indicating Conditions at Maximum Dry-Bulb {BasedOnField A3}
  97773,                                  ! Barometric Pressure {Pa}
  6,                                      ! Wind Speed {m/s}
  280,                                    ! Wind Direction {deg}
  0,                                      ! Sky Clearness
  0,                                      ! Rain Indicator
  0,                                      ! Snow Indicator
  21,                                     ! Day of Month
  1,                                      ! Month
  WinterDesignDay,                        ! Day Type
  0,                                      ! Daylight Saving Time Indicator
  Wetbulb,                                ! Humidity Indicating Type
  ,                                       ! Humidity Indicating Day Schedule Name
  DefaultMultipliers,                     ! Dry-Bulb Temperature Range Modifier Type
  ,                                       ! Dry-Bulb Temperature Range Modifier Schedule Name
  ASHRAEClearSky;                         ! Solar Model Indicator

OS:ComponentData,
  {672fb87d-785f-454b-bae2-02407170c9fb}, ! Handle
  Component Data 1,                       ! Name
  {725d30db-c889-47f7-a4e2-d49d5dfa2f31}, ! UUID
  {7541a550-87f0-480c-87bd-775fd644c3d7}, ! Version UUID
  1366307830,                             ! Creation Timestamp
  1366307830,                             ! Version Timestamp
  {06684526-19c6-483d-abce-def1bb1010eb}; ! Name of Object 1

