
OS:Version,
  {37ed5c9a-cd1a-4a9e-94f7-73913026ac34}, ! Handle
  0.9.3;                                  ! Version Identifier

OS:SizingPeriod:DesignDay,
  {30f3ea51-db57-41f1-94e2-7d9c1d8c5642}, ! Handle
  Otis Angb Ann Clg 2% Condns WB=>MDB,    ! Name
  24.9,                                   ! Maximum Dry-Bulb Temperature {C}
  8.3,                                    ! Daily Dry-Bulb Temperature Range {deltaC}
  22.6,                                   ! Humidity Indicating Conditions at Maximum Dry-Bulb {BasedOnField A3}
  100845,                                 ! Barometric Pressure {Pa}
  4.8,                                    ! Wind Speed {m/s}
  230,                                    ! Wind Direction {deg}
  0,                                      ! Sky Clearness
  0,                                      ! Rain Indicator
  0,                                      ! Snow Indicator
  21,                                     ! Day of Month
  7,                                      ! Month
  SummerDesignDay,                        ! Day Type
  0,                                      ! Daylight Saving Time Indicator
  Wetbulb,                                ! Humidity Indicating Type
  ,                                       ! Humidity Indicating Day Schedule Name
  DefaultMultipliers,                     ! Dry-Bulb Temperature Range Modifier Type
  ,                                       ! Dry-Bulb Temperature Range Modifier Schedule Name
  ASHRAETau,                              ! Solar Model Indicator
  ,                                       ! Beam Solar Day Schedule Name
  ,                                       ! Diffuse Solar Day Schedule Name
  0.514,                                  ! ASHRAE Taub {dimensionless}
  1.868;                                  ! ASHRAE Taud {dimensionless}

OS:ComponentData,
  {17517260-a6df-434f-a37f-660bfba7286b}, ! Handle
  Component Data 1,                       ! Name
  {dc19fb14-88f5-44b8-ad1e-3fc48b5b979e}, ! UUID
  {32de0a2a-594c-4f09-b36c-02eae163411f}, ! Version UUID
  1366307815,                             ! Creation Timestamp
  1366307815,                             ! Version Timestamp
  {30f3ea51-db57-41f1-94e2-7d9c1d8c5642}; ! Name of Object 1

