
OS:Version,
  {8d4921bb-97a3-444d-97da-85cf162c6f53}, ! Handle
  0.9.3;                                  ! Version Identifier

OS:SizingPeriod:DesignDay,
  {9b9a02c8-0a73-47e6-a109-3def652346f3}, ! Handle
  MILWAUKEE Ann Htg 99% Condns DB,        ! Name
  -16.8,                                  ! Maximum Dry-Bulb Temperature {C}
  0,                                      ! Daily Dry-Bulb Temperature Range {deltaC}
  -16.8,                                  ! Humidity Indicating Conditions at Maximum Dry-Bulb {BasedOnField A3}
  98816,                                  ! Barometric Pressure {Pa}
  5.7,                                    ! Wind Speed {m/s}
  300,                                    ! Wind Direction {deg}
  0,                                      ! Sky Clearness
  0,                                      ! Rain Indicator
  0,                                      ! Snow Indicator
  21,                                     ! Day of Month
  1,                                      ! Month
  WinterDesignDay,                        ! Day Type
  0,                                      ! Daylight Saving Time Indicator
  Wetbulb,                                ! Humidity Indicating Type
  ,                                       ! Humidity Indicating Day Schedule Name
  DefaultMultipliers,                     ! Dry-Bulb Temperature Range Modifier Type
  ,                                       ! Dry-Bulb Temperature Range Modifier Schedule Name
  ASHRAEClearSky;                         ! Solar Model Indicator

OS:ComponentData,
  {bacc0966-9448-42a4-8f48-1bcb76dd79b5}, ! Handle
  Component Data 1,                       ! Name
  {af0c24b5-f4cb-4aeb-aa4c-28a965fb7b8c}, ! UUID
  {6866908e-75e2-4961-abd0-a8e84b143cb9}, ! Version UUID
  1366311561,                             ! Creation Timestamp
  1366311561,                             ! Version Timestamp
  {9b9a02c8-0a73-47e6-a109-3def652346f3}; ! Name of Object 1

