
OS:Version,
  {48d23955-69a6-49b4-80a8-a3ba98407878}, ! Handle
  0.9.3;                                  ! Version Identifier

OS:SizingPeriod:DesignDay,
  {67c14c61-3cca-41d3-98c0-30b92355d938}, ! Handle
  Red Bluff Ann Clg 1% Condns DB=>MWB,    ! Name
  38.6,                                   ! Maximum Dry-Bulb Temperature {C}
  16.9,                                   ! Daily Dry-Bulb Temperature Range {deltaC}
  20.2,                                   ! Humidity Indicating Conditions at Maximum Dry-Bulb {BasedOnField A3}
  100058,                                 ! Barometric Pressure {Pa}
  3.9,                                    ! Wind Speed {m/s}
  150,                                    ! Wind Direction {deg}
  0,                                      ! Sky Clearness
  0,                                      ! Rain Indicator
  0,                                      ! Snow Indicator
  21,                                     ! Day of Month
  7,                                      ! Month
  SummerDesignDay,                        ! Day Type
  0,                                      ! Daylight Saving Time Indicator
  Wetbulb,                                ! Humidity Indicating Type
  ,                                       ! Humidity Indicating Day Schedule Name
  DefaultMultipliers,                     ! Dry-Bulb Temperature Range Modifier Type
  ,                                       ! Dry-Bulb Temperature Range Modifier Schedule Name
  ASHRAETau,                              ! Solar Model Indicator
  ,                                       ! Beam Solar Day Schedule Name
  ,                                       ! Diffuse Solar Day Schedule Name
  0.364,                                  ! ASHRAE Taub {dimensionless}
  2.504;                                  ! ASHRAE Taud {dimensionless}

OS:ComponentData,
  {88b0a31e-63bf-4fd4-9b7d-8448c818bafe}, ! Handle
  Component Data 1,                       ! Name
  {88f91d93-b8ee-4c08-b62e-3bf65445a932}, ! UUID
  {437f4d8e-bdd9-4588-9e96-742963a61af9}, ! Version UUID
  1366306544,                             ! Creation Timestamp
  1366306544,                             ! Version Timestamp
  {67c14c61-3cca-41d3-98c0-30b92355d938}; ! Name of Object 1

