
OS:Version,
  {16885a82-e8c0-4802-bf86-ecd42c562814}, ! Handle
  0.9.3;                                  ! Version Identifier

OS:SizingPeriod:DesignDay,
  {8c2972cc-a6ca-424e-bb7d-6eecd9e34761}, ! Handle
  Rogers  Awos Ann Clg 2% Condns WB=>MDB, ! Name
  29.5,                                   ! Maximum Dry-Bulb Temperature {C}
  9.9,                                    ! Daily Dry-Bulb Temperature Range {deltaC}
  23.5,                                   ! Humidity Indicating Conditions at Maximum Dry-Bulb {BasedOnField A3}
  96438,                                  ! Barometric Pressure {Pa}
  3.7,                                    ! Wind Speed {m/s}
  240,                                    ! Wind Direction {deg}
  0,                                      ! Sky Clearness
  0,                                      ! Rain Indicator
  0,                                      ! Snow Indicator
  21,                                     ! Day of Month
  7,                                      ! Month
  SummerDesignDay,                        ! Day Type
  0,                                      ! Daylight Saving Time Indicator
  Wetbulb,                                ! Humidity Indicating Type
  ,                                       ! Humidity Indicating Day Schedule Name
  DefaultMultipliers,                     ! Dry-Bulb Temperature Range Modifier Type
  ,                                       ! Dry-Bulb Temperature Range Modifier Schedule Name
  ASHRAETau,                              ! Solar Model Indicator
  ,                                       ! Beam Solar Day Schedule Name
  ,                                       ! Diffuse Solar Day Schedule Name
  0.453,                                  ! ASHRAE Taub {dimensionless}
  2.083;                                  ! ASHRAE Taud {dimensionless}

OS:ComponentData,
  {d6e2ec0d-f05b-402d-8129-85373b745482}, ! Handle
  Component Data 1,                       ! Name
  {059d56e0-d57a-40f9-b19b-a9ee19a18751}, ! UUID
  {598f2854-b047-4db7-b456-2a27b0513ff4}, ! Version UUID
  1366306244,                             ! Creation Timestamp
  1366306244,                             ! Version Timestamp
  {8c2972cc-a6ca-424e-bb7d-6eecd9e34761}; ! Name of Object 1

