
OS:Version,
  {aebfb788-701f-43ec-a5d6-f88106c9acca}, ! Handle
  0.9.3;                                  ! Version Identifier

OS:SizingPeriod:DesignDay,
  {808915c2-13ce-49ab-aedb-33d911d76818}, ! Handle
  Washington  Awos Ann Clg .4% Condns WB=>MDB, ! Name
  28.3,                                   ! Maximum Dry-Bulb Temperature {C}
  11.8,                                   ! Daily Dry-Bulb Temperature Range {deltaC}
  23.1,                                   ! Humidity Indicating Conditions at Maximum Dry-Bulb {BasedOnField A3}
  97063,                                  ! Barometric Pressure {Pa}
  3.2,                                    ! Wind Speed {m/s}
  240,                                    ! Wind Direction {deg}
  0,                                      ! Sky Clearness
  0,                                      ! Rain Indicator
  0,                                      ! Snow Indicator
  21,                                     ! Day of Month
  7,                                      ! Month
  SummerDesignDay,                        ! Day Type
  0,                                      ! Daylight Saving Time Indicator
  Wetbulb,                                ! Humidity Indicating Type
  ,                                       ! Humidity Indicating Day Schedule Name
  DefaultMultipliers,                     ! Dry-Bulb Temperature Range Modifier Type
  ,                                       ! Dry-Bulb Temperature Range Modifier Schedule Name
  ASHRAETau,                              ! Solar Model Indicator
  ,                                       ! Beam Solar Day Schedule Name
  ,                                       ! Diffuse Solar Day Schedule Name
  0.486,                                  ! ASHRAE Taub {dimensionless}
  1.92;                                   ! ASHRAE Taud {dimensionless}

OS:ComponentData,
  {5301846a-21ab-4416-be52-ec99121ac20a}, ! Handle
  Component Data 1,                       ! Name
  {d1d9a3e0-f1f5-42fc-9277-79085250078c}, ! UUID
  {b2ba8c78-c18a-4c30-872c-c9b2d2cbf5cf}, ! Version UUID
  1366310257,                             ! Creation Timestamp
  1366310257,                             ! Version Timestamp
  {808915c2-13ce-49ab-aedb-33d911d76818}; ! Name of Object 1

