
OS:Version,
  {a161ffcd-d03a-4efd-b7f1-1697a78a7f56}, ! Handle
  0.9.3;                                  ! Version Identifier

OS:SizingPeriod:DesignDay,
  {037a1bbe-f7f8-478e-a115-e48217b6ed65}, ! Handle
  Vero Beach Municipal Arpt Ann Clg 1% Condns Enth=>MDB, ! Name
  30.6,                                   ! Maximum Dry-Bulb Temperature {C}
  8.7,                                    ! Daily Dry-Bulb Temperature Range {deltaC}
  81800,                                  ! Humidity Indicating Conditions at Maximum Dry-Bulb {BasedOnField A3}
  101241,                                 ! Barometric Pressure {Pa}
  4.8,                                    ! Wind Speed {m/s}
  120,                                    ! Wind Direction {deg}
  0,                                      ! Sky Clearness
  0,                                      ! Rain Indicator
  0,                                      ! Snow Indicator
  21,                                     ! Day of Month
  7,                                      ! Month
  SummerDesignDay,                        ! Day Type
  0,                                      ! Daylight Saving Time Indicator
  Enthalpy,                               ! Humidity Indicating Type
  ,                                       ! Humidity Indicating Day Schedule Name
  DefaultMultipliers,                     ! Dry-Bulb Temperature Range Modifier Type
  ,                                       ! Dry-Bulb Temperature Range Modifier Schedule Name
  ASHRAETau,                              ! Solar Model Indicator
  ,                                       ! Beam Solar Day Schedule Name
  ,                                       ! Diffuse Solar Day Schedule Name
  0.492,                                  ! ASHRAE Taub {dimensionless}
  2.012;                                  ! ASHRAE Taud {dimensionless}

OS:ComponentData,
  {855c1d9e-a067-4372-b955-834d3234a170}, ! Handle
  Component Data 1,                       ! Name
  {436c31d9-0d94-4eac-a3f0-e638ecf5421f}, ! UUID
  {594ed15a-4b17-420e-b446-86cafe595807}, ! Version UUID
  1366306946,                             ! Creation Timestamp
  1366306946,                             ! Version Timestamp
  {037a1bbe-f7f8-478e-a115-e48217b6ed65}; ! Name of Object 1

