
OS:Version,
  {49881e70-1f5d-445e-be62-467c475fd078}, ! Handle
  0.9.3;                                  ! Version Identifier

OS:SizingPeriod:DesignDay,
  {4571a759-d3ab-4d37-9c2c-8202581ab17e}, ! Handle
  Ocala Muni  Awos Ann Clg 2% Condns Enth=>MDB, ! Name
  30.5,                                   ! Maximum Dry-Bulb Temperature {C}
  10.3,                                   ! Daily Dry-Bulb Temperature Range {deltaC}
  76600,                                  ! Humidity Indicating Conditions at Maximum Dry-Bulb {BasedOnField A3}
  101001,                                 ! Barometric Pressure {Pa}
  3.2,                                    ! Wind Speed {m/s}
  250,                                    ! Wind Direction {deg}
  0,                                      ! Sky Clearness
  0,                                      ! Rain Indicator
  0,                                      ! Snow Indicator
  21,                                     ! Day of Month
  7,                                      ! Month
  SummerDesignDay,                        ! Day Type
  0,                                      ! Daylight Saving Time Indicator
  Enthalpy,                               ! Humidity Indicating Type
  ,                                       ! Humidity Indicating Day Schedule Name
  DefaultMultipliers,                     ! Dry-Bulb Temperature Range Modifier Type
  ,                                       ! Dry-Bulb Temperature Range Modifier Schedule Name
  ASHRAETau,                              ! Solar Model Indicator
  ,                                       ! Beam Solar Day Schedule Name
  ,                                       ! Diffuse Solar Day Schedule Name
  0.524,                                  ! ASHRAE Taub {dimensionless}
  1.897;                                  ! ASHRAE Taud {dimensionless}

OS:ComponentData,
  {59593889-58eb-4813-a3ec-57430c815cc3}, ! Handle
  Component Data 1,                       ! Name
  {8acce7d1-3137-4f51-8f53-ce74e99c333d}, ! UUID
  {494950f9-7d35-4a08-b25d-0203a659f2c9}, ! Version UUID
  1366306881,                             ! Creation Timestamp
  1366306881,                             ! Version Timestamp
  {4571a759-d3ab-4d37-9c2c-8202581ab17e}; ! Name of Object 1

