
OS:Version,
  {6db6c86e-6c98-4561-8453-bf3a4f1a7fe5}, ! Handle
  0.9.3;                                  ! Version Identifier

OS:SizingPeriod:DesignDay,
  {97860cdb-2db0-4659-bfcc-091b512a280b}, ! Handle
  Manistee  Awos Ann Htg 99% Condns DB,   ! Name
  -13.9,                                  ! Maximum Dry-Bulb Temperature {C}
  0,                                      ! Daily Dry-Bulb Temperature Range {deltaC}
  -13.9,                                  ! Humidity Indicating Conditions at Maximum Dry-Bulb {BasedOnField A3}
  99075,                                  ! Barometric Pressure {Pa}
  3.8,                                    ! Wind Speed {m/s}
  90,                                     ! Wind Direction {deg}
  0,                                      ! Sky Clearness
  0,                                      ! Rain Indicator
  0,                                      ! Snow Indicator
  21,                                     ! Day of Month
  1,                                      ! Month
  WinterDesignDay,                        ! Day Type
  0,                                      ! Daylight Saving Time Indicator
  Wetbulb,                                ! Humidity Indicating Type
  ,                                       ! Humidity Indicating Day Schedule Name
  DefaultMultipliers,                     ! Dry-Bulb Temperature Range Modifier Type
  ,                                       ! Dry-Bulb Temperature Range Modifier Schedule Name
  ASHRAEClearSky;                         ! Solar Model Indicator

OS:ComponentData,
  {54d7cde9-c371-49b9-b806-0dfd1fd39deb}, ! Handle
  Component Data 1,                       ! Name
  {7d37cbb6-3798-4d28-8f01-493423de8ba7}, ! UUID
  {e60447bb-3c79-4967-878d-a9b90678d454}, ! Version UUID
  1366308059,                             ! Creation Timestamp
  1366308059,                             ! Version Timestamp
  {97860cdb-2db0-4659-bfcc-091b512a280b}; ! Name of Object 1

