
OS:Version,
  {5acc6fc9-6721-4f47-89ec-6c4415e2fde4}, ! Handle
  0.9.3;                                  ! Version Identifier

OS:SizingPeriod:DesignDay,
  {f03a5f07-f6f4-4729-90ab-1507585ffd85}, ! Handle
  Olympia Airport Ann Htg Wind 99% Condns WS=>MCDB, ! Name
  7.6,                                    ! Maximum Dry-Bulb Temperature {C}
  0,                                      ! Daily Dry-Bulb Temperature Range {deltaC}
  7.6,                                    ! Humidity Indicating Conditions at Maximum Dry-Bulb {BasedOnField A3}
  100570,                                 ! Barometric Pressure {Pa}
  9.3,                                    ! Wind Speed {m/s}
  40,                                     ! Wind Direction {deg}
  0,                                      ! Sky Clearness
  0,                                      ! Rain Indicator
  0,                                      ! Snow Indicator
  21,                                     ! Day of Month
  12,                                     ! Month
  WinterDesignDay,                        ! Day Type
  0,                                      ! Daylight Saving Time Indicator
  Wetbulb,                                ! Humidity Indicating Type
  ,                                       ! Humidity Indicating Day Schedule Name
  DefaultMultipliers,                     ! Dry-Bulb Temperature Range Modifier Type
  ,                                       ! Dry-Bulb Temperature Range Modifier Schedule Name
  ASHRAEClearSky;                         ! Solar Model Indicator

OS:ComponentData,
  {6aaa7422-17d9-4ccd-a381-93394fdeea2a}, ! Handle
  Component Data 1,                       ! Name
  {d86ddf5f-eb43-42ce-bc5b-8d65a028b4a9}, ! UUID
  {fb6298ac-b4c6-46d1-964a-a02c53ef669f}, ! Version UUID
  1366311313,                             ! Creation Timestamp
  1366311313,                             ! Version Timestamp
  {f03a5f07-f6f4-4729-90ab-1507585ffd85}; ! Name of Object 1

