
OS:Version,
  {d24c97a7-22c9-43f7-a5b3-96065f541203}, ! Handle
  0.9.3;                                  ! Version Identifier

OS:SizingPeriod:DesignDay,
  {1151f82f-c841-493c-8e0a-f6c87d9b16fb}, ! Handle
  SALT_LAKE Ann Clg .4% Condns DP=>MDB,   ! Name
  22.9,                                   ! Maximum Dry-Bulb Temperature {C}
  14.4,                                   ! Daily Dry-Bulb Temperature Range {deltaC}
  16.4,                                   ! Humidity Indicating Conditions at Maximum Dry-Bulb {BasedOnField A3}
  86779,                                  ! Barometric Pressure {Pa}
  5.1,                                    ! Wind Speed {m/s}
  340,                                    ! Wind Direction {deg}
  0,                                      ! Sky Clearness
  0,                                      ! Rain Indicator
  0,                                      ! Snow Indicator
  21,                                     ! Day of Month
  7,                                      ! Month
  SummerDesignDay,                        ! Day Type
  0,                                      ! Daylight Saving Time Indicator
  Dewpoint,                               ! Humidity Indicating Type
  ,                                       ! Humidity Indicating Day Schedule Name
  DefaultMultipliers,                     ! Dry-Bulb Temperature Range Modifier Type
  ,                                       ! Dry-Bulb Temperature Range Modifier Schedule Name
  ASHRAETau,                              ! Solar Model Indicator
  ,                                       ! Beam Solar Day Schedule Name
  ,                                       ! Diffuse Solar Day Schedule Name
  0.44,                                   ! ASHRAE Taub {dimensionless}
  1.968;                                  ! ASHRAE Taud {dimensionless}

OS:ComponentData,
  {60989790-07ec-4253-9b95-62dcc0f1b6af}, ! Handle
  Component Data 1,                       ! Name
  {fd2265cc-e5d6-498f-8e9c-7bd12a10b466}, ! UUID
  {7592808c-3502-4a57-adf3-7040814ce08f}, ! Version UUID
  1366310989,                             ! Creation Timestamp
  1366310989,                             ! Version Timestamp
  {1151f82f-c841-493c-8e0a-f6c87d9b16fb}; ! Name of Object 1

