
OS:Version,
  {058c7cd3-381a-45a6-a52d-e826d3c3a194}, ! Handle
  0.9.3;                                  ! Version Identifier

OS:SizingPeriod:DesignDay,
  {4d7d4378-e0fc-45d2-ae9c-399e42a36fed}, ! Handle
  Sheridan Ann Clg .4% Condns DB=>MWB,    ! Name
  35.3,                                   ! Maximum Dry-Bulb Temperature {C}
  17.2,                                   ! Daily Dry-Bulb Temperature Range {deltaC}
  17.7,                                   ! Humidity Indicating Conditions at Maximum Dry-Bulb {BasedOnField A3}
  87619,                                  ! Barometric Pressure {Pa}
  3.7,                                    ! Wind Speed {m/s}
  310,                                    ! Wind Direction {deg}
  0,                                      ! Sky Clearness
  0,                                      ! Rain Indicator
  0,                                      ! Snow Indicator
  21,                                     ! Day of Month
  7,                                      ! Month
  SummerDesignDay,                        ! Day Type
  0,                                      ! Daylight Saving Time Indicator
  Wetbulb,                                ! Humidity Indicating Type
  ,                                       ! Humidity Indicating Day Schedule Name
  DefaultMultipliers,                     ! Dry-Bulb Temperature Range Modifier Type
  ,                                       ! Dry-Bulb Temperature Range Modifier Schedule Name
  ASHRAETau,                              ! Solar Model Indicator
  ,                                       ! Beam Solar Day Schedule Name
  ,                                       ! Diffuse Solar Day Schedule Name
  0.407,                                  ! ASHRAE Taub {dimensionless}
  2.098;                                  ! ASHRAE Taud {dimensionless}

OS:ComponentData,
  {3bf1376f-823a-4f68-b0ae-0449ed977abb}, ! Handle
  Component Data 1,                       ! Name
  {17bde0b9-ac7c-42a0-9285-db27ef7dcaa1}, ! UUID
  {2a6f5f27-ca4b-4d19-90e2-e243d5a7da9b}, ! Version UUID
  1366311780,                             ! Creation Timestamp
  1366311780,                             ! Version Timestamp
  {4d7d4378-e0fc-45d2-ae9c-399e42a36fed}; ! Name of Object 1

