
OS:Version,
  {47b2cd3c-c2c1-47ba-964b-e714a1c89fda}, ! Handle
  0.9.3;                                  ! Version Identifier

OS:SizingPeriod:DesignDay,
  {3153d849-18f5-41d4-9ae7-bbd12bd8c6e6}, ! Handle
  Palm Springs Thermal Ap Ann Clg 1% Condns Enth=>MDB, ! Name
  36.3,                                   ! Maximum Dry-Bulb Temperature {C}
  16.8,                                   ! Daily Dry-Bulb Temperature Range {deltaC}
  79400,                                  ! Humidity Indicating Conditions at Maximum Dry-Bulb {BasedOnField A3}
  101734,                                 ! Barometric Pressure {Pa}
  3.4,                                    ! Wind Speed {m/s}
  140,                                    ! Wind Direction {deg}
  0,                                      ! Sky Clearness
  0,                                      ! Rain Indicator
  0,                                      ! Snow Indicator
  21,                                     ! Day of Month
  7,                                      ! Month
  SummerDesignDay,                        ! Day Type
  0,                                      ! Daylight Saving Time Indicator
  Enthalpy,                               ! Humidity Indicating Type
  ,                                       ! Humidity Indicating Day Schedule Name
  DefaultMultipliers,                     ! Dry-Bulb Temperature Range Modifier Type
  ,                                       ! Dry-Bulb Temperature Range Modifier Schedule Name
  ASHRAETau,                              ! Solar Model Indicator
  ,                                       ! Beam Solar Day Schedule Name
  ,                                       ! Diffuse Solar Day Schedule Name
  0.511,                                  ! ASHRAE Taub {dimensionless}
  1.868;                                  ! ASHRAE Taud {dimensionless}

OS:ComponentData,
  {6b2a4e56-b99b-42ed-960e-2e55c7006e94}, ! Handle
  Component Data 1,                       ! Name
  {d5ff7f17-62cd-477e-b4ad-35c1dddefe46}, ! UUID
  {dbf58a18-0f38-4040-b2d7-6901ff9a927a}, ! Version UUID
  1366306528,                             ! Creation Timestamp
  1366306528,                             ! Version Timestamp
  {3153d849-18f5-41d4-9ae7-bbd12bd8c6e6}; ! Name of Object 1

