
OS:Version,
  {aae1f7fd-5149-4cf2-8806-1928b2df48ca}, ! Handle
  0.9.3;                                  ! Version Identifier

OS:SizingPeriod:DesignDay,
  {2109e1e7-be14-40ce-8d47-771a8f213f3c}, ! Handle
  Rochester Greater Rochester I Ann Clg 1% Condns WB=>MDB, ! Name
  27.6,                                   ! Maximum Dry-Bulb Temperature {C}
  10.7,                                   ! Daily Dry-Bulb Temperature Range {deltaC}
  23.1,                                   ! Humidity Indicating Conditions at Maximum Dry-Bulb {BasedOnField A3}
  99146,                                  ! Barometric Pressure {Pa}
  5.2,                                    ! Wind Speed {m/s}
  240,                                    ! Wind Direction {deg}
  0,                                      ! Sky Clearness
  0,                                      ! Rain Indicator
  0,                                      ! Snow Indicator
  21,                                     ! Day of Month
  7,                                      ! Month
  SummerDesignDay,                        ! Day Type
  0,                                      ! Daylight Saving Time Indicator
  Wetbulb,                                ! Humidity Indicating Type
  ,                                       ! Humidity Indicating Day Schedule Name
  DefaultMultipliers,                     ! Dry-Bulb Temperature Range Modifier Type
  ,                                       ! Dry-Bulb Temperature Range Modifier Schedule Name
  ASHRAETau,                              ! Solar Model Indicator
  ,                                       ! Beam Solar Day Schedule Name
  ,                                       ! Diffuse Solar Day Schedule Name
  0.463,                                  ! ASHRAE Taub {dimensionless}
  2.001;                                  ! ASHRAE Taud {dimensionless}

OS:ComponentData,
  {7adbdd33-4fe5-415a-b6b5-b9e140e6a01b}, ! Handle
  Component Data 1,                       ! Name
  {fbf9d684-701e-4b2d-96e2-1b3169f41cf1}, ! UUID
  {8eaa09ed-a61f-495f-8a19-af4e453b83bd}, ! Version UUID
  1366309718,                             ! Creation Timestamp
  1366309718,                             ! Version Timestamp
  {2109e1e7-be14-40ce-8d47-771a8f213f3c}; ! Name of Object 1

