
OS:Version,
  {5fac312b-dc03-465f-9aab-646743a26481}, ! Handle
  0.9.3;                                  ! Version Identifier

OS:SizingPeriod:DesignDay,
  {c3a16857-6cd2-40c7-9dd9-8bb101f58c73}, ! Handle
  Reading Spaatz Field Ann Clg 1% Condns DP=>MDB, ! Name
  27.1,                                   ! Maximum Dry-Bulb Temperature {C}
  10.9,                                   ! Daily Dry-Bulb Temperature Range {deltaC}
  22.6,                                   ! Humidity Indicating Conditions at Maximum Dry-Bulb {BasedOnField A3}
  100082,                                 ! Barometric Pressure {Pa}
  4.5,                                    ! Wind Speed {m/s}
  270,                                    ! Wind Direction {deg}
  0,                                      ! Sky Clearness
  0,                                      ! Rain Indicator
  0,                                      ! Snow Indicator
  21,                                     ! Day of Month
  7,                                      ! Month
  SummerDesignDay,                        ! Day Type
  0,                                      ! Daylight Saving Time Indicator
  Dewpoint,                               ! Humidity Indicating Type
  ,                                       ! Humidity Indicating Day Schedule Name
  DefaultMultipliers,                     ! Dry-Bulb Temperature Range Modifier Type
  ,                                       ! Dry-Bulb Temperature Range Modifier Schedule Name
  ASHRAETau,                              ! Solar Model Indicator
  ,                                       ! Beam Solar Day Schedule Name
  ,                                       ! Diffuse Solar Day Schedule Name
  0.516,                                  ! ASHRAE Taub {dimensionless}
  1.849;                                  ! ASHRAE Taud {dimensionless}

OS:ComponentData,
  {83b71b15-ad8f-4b18-a2df-4855d29c234a}, ! Handle
  Component Data 1,                       ! Name
  {56434dcb-82b9-4d91-a33a-a8fe7a4edc41}, ! UUID
  {3b1ae443-8aec-42d3-94be-bccba6a5bf41}, ! Version UUID
  1366310252,                             ! Creation Timestamp
  1366310252,                             ! Version Timestamp
  {c3a16857-6cd2-40c7-9dd9-8bb101f58c73}; ! Name of Object 1

