
OS:Version,
  {1bf020d3-c092-4a21-93a4-87572c6aa055}, ! Handle
  0.9.3;                                  ! Version Identifier

OS:SizingPeriod:DesignDay,
  {2274d5de-add0-47f9-abaa-0e6c8d0af6ec}, ! Handle
  New Orleans Intl Arpt Ann Clg .4% Condns DP=>MDB, ! Name
  29.1,                                   ! Maximum Dry-Bulb Temperature {C}
  8.5,                                    ! Daily Dry-Bulb Temperature Range {deltaC}
  25.9,                                   ! Humidity Indicating Conditions at Maximum Dry-Bulb {BasedOnField A3}
  101313,                                 ! Barometric Pressure {Pa}
  3.4,                                    ! Wind Speed {m/s}
  0,                                      ! Wind Direction {deg}
  0,                                      ! Sky Clearness
  0,                                      ! Rain Indicator
  0,                                      ! Snow Indicator
  21,                                     ! Day of Month
  8,                                      ! Month
  SummerDesignDay,                        ! Day Type
  0,                                      ! Daylight Saving Time Indicator
  Dewpoint,                               ! Humidity Indicating Type
  ,                                       ! Humidity Indicating Day Schedule Name
  DefaultMultipliers,                     ! Dry-Bulb Temperature Range Modifier Type
  ,                                       ! Dry-Bulb Temperature Range Modifier Schedule Name
  ASHRAETau,                              ! Solar Model Indicator
  ,                                       ! Beam Solar Day Schedule Name
  ,                                       ! Diffuse Solar Day Schedule Name
  0.553,                                  ! ASHRAE Taub {dimensionless}
  1.821;                                  ! ASHRAE Taud {dimensionless}

OS:ComponentData,
  {9353abff-6950-445c-8250-6144a4c69c3f}, ! Handle
  Component Data 1,                       ! Name
  {e3fc3ee2-d90a-4d4e-a9e1-83fa1946601b}, ! UUID
  {8225cd71-f797-404f-87de-8dad7afb76e2}, ! Version UUID
  1366307755,                             ! Creation Timestamp
  1366307755,                             ! Version Timestamp
  {2274d5de-add0-47f9-abaa-0e6c8d0af6ec}; ! Name of Object 1

