
OS:Version,
  {57a3673f-1a9d-4cd8-ad3d-ac89eda6db0f}, ! Handle
  0.9.3;                                  ! Version Identifier

OS:SizingPeriod:DesignDay,
  {b78eac61-aaa2-459a-82d5-42e672fad86f}, ! Handle
  Pipestone  Awos Ann Clg 2% Condns Enth=>MDB, ! Name
  26.8,                                   ! Maximum Dry-Bulb Temperature {C}
  10.8,                                   ! Daily Dry-Bulb Temperature Range {deltaC}
  73300,                                  ! Humidity Indicating Conditions at Maximum Dry-Bulb {BasedOnField A3}
  95129,                                  ! Barometric Pressure {Pa}
  5.7,                                    ! Wind Speed {m/s}
  190,                                    ! Wind Direction {deg}
  0,                                      ! Sky Clearness
  0,                                      ! Rain Indicator
  0,                                      ! Snow Indicator
  21,                                     ! Day of Month
  7,                                      ! Month
  SummerDesignDay,                        ! Day Type
  0,                                      ! Daylight Saving Time Indicator
  Enthalpy,                               ! Humidity Indicating Type
  ,                                       ! Humidity Indicating Day Schedule Name
  DefaultMultipliers,                     ! Dry-Bulb Temperature Range Modifier Type
  ,                                       ! Dry-Bulb Temperature Range Modifier Schedule Name
  ASHRAETau,                              ! Solar Model Indicator
  ,                                       ! Beam Solar Day Schedule Name
  ,                                       ! Diffuse Solar Day Schedule Name
  0.387,                                  ! ASHRAE Taub {dimensionless}
  2.294;                                  ! ASHRAE Taud {dimensionless}

OS:ComponentData,
  {bf25157a-2583-4f39-8256-442306ed0637}, ! Handle
  Component Data 1,                       ! Name
  {c13220ca-5d7f-4b97-88f9-1c0d54f3106f}, ! UUID
  {863ed027-3d29-48bb-a398-a51f6fa4eeab}, ! Version UUID
  1366308370,                             ! Creation Timestamp
  1366308370,                             ! Version Timestamp
  {b78eac61-aaa2-459a-82d5-42e672fad86f}; ! Name of Object 1

