
OS:Version,
  {af94dfb4-1f1f-4ca6-9fb0-53c2bed62747}, ! Handle
  0.9.3;                                  ! Version Identifier

OS:SizingPeriod:DesignDay,
  {d4656d8a-0a41-4744-a3fc-e872864d66c7}, ! Handle
  Tampa/Int'l Airport Ann Clg 2% Condns Enth=>MDB, ! Name
  30.5,                                   ! Maximum Dry-Bulb Temperature {C}
  7.9,                                    ! Daily Dry-Bulb Temperature Range {deltaC}
  80900,                                  ! Humidity Indicating Conditions at Maximum Dry-Bulb {BasedOnField A3}
  101289,                                 ! Barometric Pressure {Pa}
  3.9,                                    ! Wind Speed {m/s}
  260,                                    ! Wind Direction {deg}
  0,                                      ! Sky Clearness
  0,                                      ! Rain Indicator
  0,                                      ! Snow Indicator
  21,                                     ! Day of Month
  8,                                      ! Month
  SummerDesignDay,                        ! Day Type
  0,                                      ! Daylight Saving Time Indicator
  Enthalpy,                               ! Humidity Indicating Type
  ,                                       ! Humidity Indicating Day Schedule Name
  DefaultMultipliers,                     ! Dry-Bulb Temperature Range Modifier Type
  ,                                       ! Dry-Bulb Temperature Range Modifier Schedule Name
  ASHRAETau,                              ! Solar Model Indicator
  ,                                       ! Beam Solar Day Schedule Name
  ,                                       ! Diffuse Solar Day Schedule Name
  0.493,                                  ! ASHRAE Taub {dimensionless}
  2.01;                                   ! ASHRAE Taud {dimensionless}

OS:ComponentData,
  {3bef0769-951b-419c-a34a-58512714c2d4}, ! Handle
  Component Data 1,                       ! Name
  {ff4edf71-6466-47e8-acbe-210ab710ad71}, ! UUID
  {c7404a88-833c-4fdb-861e-557eb59d962e}, ! Version UUID
  1366306934,                             ! Creation Timestamp
  1366306934,                             ! Version Timestamp
  {d4656d8a-0a41-4744-a3fc-e872864d66c7}; ! Name of Object 1

