
OS:Version,
  {3df59c70-b91e-4d5d-be56-ad5829e9e6b1}, ! Handle
  0.9.3;                                  ! Version Identifier

OS:SizingPeriod:DesignDay,
  {b38a1bd0-b24b-4d0b-bf39-1e667107abed}, ! Handle
  Sturgeon Bay Ann Hum_n 99% Condns DP=>MCDB, ! Name
  -17.3,                                  ! Maximum Dry-Bulb Temperature {C}
  0,                                      ! Daily Dry-Bulb Temperature Range {deltaC}
  -23.6,                                  ! Humidity Indicating Conditions at Maximum Dry-Bulb {BasedOnField A3}
  98698,                                  ! Barometric Pressure {Pa}
  4.9,                                    ! Wind Speed {m/s}
  270,                                    ! Wind Direction {deg}
  0,                                      ! Sky Clearness
  0,                                      ! Rain Indicator
  0,                                      ! Snow Indicator
  21,                                     ! Day of Month
  1,                                      ! Month
  WinterDesignDay,                        ! Day Type
  0,                                      ! Daylight Saving Time Indicator
  Dewpoint,                               ! Humidity Indicating Type
  ,                                       ! Humidity Indicating Day Schedule Name
  DefaultMultipliers,                     ! Dry-Bulb Temperature Range Modifier Type
  ,                                       ! Dry-Bulb Temperature Range Modifier Schedule Name
  ASHRAEClearSky;                         ! Solar Model Indicator

OS:ComponentData,
  {7bd3ba07-828e-4527-8b8c-6fc39f2e8906}, ! Handle
  Component Data 1,                       ! Name
  {df2c8278-35bf-4409-931b-b191e90ae321}, ! UUID
  {89b83552-2ca4-481d-a3df-e5f92829b4bd}, ! Version UUID
  1366311586,                             ! Creation Timestamp
  1366311586,                             ! Version Timestamp
  {b38a1bd0-b24b-4d0b-bf39-1e667107abed}; ! Name of Object 1

