
OS:Version,
  {870254eb-37d4-4053-9fb6-e74a0d2738b8}, ! Handle
  0.9.3;                                  ! Version Identifier

OS:SizingPeriod:DesignDay,
  {1e8b1e15-d3f8-4a28-94b8-22f87a6dd4e6}, ! Handle
  Rapid City Ann Clg .4% Condns Enth=>MDB, ! Name
  29.8,                                   ! Maximum Dry-Bulb Temperature {C}
  14.8,                                   ! Daily Dry-Bulb Temperature Range {deltaC}
  67700,                                  ! Humidity Indicating Conditions at Maximum Dry-Bulb {BasedOnField A3}
  90246,                                  ! Barometric Pressure {Pa}
  6,                                      ! Wind Speed {m/s}
  180,                                    ! Wind Direction {deg}
  0,                                      ! Sky Clearness
  0,                                      ! Rain Indicator
  0,                                      ! Snow Indicator
  21,                                     ! Day of Month
  7,                                      ! Month
  SummerDesignDay,                        ! Day Type
  0,                                      ! Daylight Saving Time Indicator
  Enthalpy,                               ! Humidity Indicating Type
  ,                                       ! Humidity Indicating Day Schedule Name
  DefaultMultipliers,                     ! Dry-Bulb Temperature Range Modifier Type
  ,                                       ! Dry-Bulb Temperature Range Modifier Schedule Name
  ASHRAETau,                              ! Solar Model Indicator
  ,                                       ! Beam Solar Day Schedule Name
  ,                                       ! Diffuse Solar Day Schedule Name
  0.41,                                   ! ASHRAE Taub {dimensionless}
  2.134;                                  ! ASHRAE Taud {dimensionless}

OS:ComponentData,
  {a3691947-aa6d-4afb-a090-f2ed5a30c742}, ! Handle
  Component Data 1,                       ! Name
  {8c554be4-cf1a-448a-a959-0f6b40ff045d}, ! UUID
  {4c4fbbc4-82d5-4bd2-8e17-425f1369ae67}, ! Version UUID
  1366310446,                             ! Creation Timestamp
  1366310446,                             ! Version Timestamp
  {1e8b1e15-d3f8-4a28-94b8-22f87a6dd4e6}; ! Name of Object 1

