
OS:Version,
  {f14ee5db-6b36-4f02-86c2-773461737e2e}, ! Handle
  0.9.3;                                  ! Version Identifier

OS:SizingPeriod:DesignDay,
  {3bfb3cb3-480c-4b5e-93fb-a75cf5c112b5}, ! Handle
  Scottsbluff Ann Htg 99.6% Condns DB,    ! Name
  -22.9,                                  ! Maximum Dry-Bulb Temperature {C}
  0,                                      ! Daily Dry-Bulb Temperature Range {deltaC}
  -22.9,                                  ! Humidity Indicating Conditions at Maximum Dry-Bulb {BasedOnField A3}
  87651,                                  ! Barometric Pressure {Pa}
  3.3,                                    ! Wind Speed {m/s}
  300,                                    ! Wind Direction {deg}
  0,                                      ! Sky Clearness
  0,                                      ! Rain Indicator
  0,                                      ! Snow Indicator
  21,                                     ! Day of Month
  12,                                     ! Month
  WinterDesignDay,                        ! Day Type
  0,                                      ! Daylight Saving Time Indicator
  Wetbulb,                                ! Humidity Indicating Type
  ,                                       ! Humidity Indicating Day Schedule Name
  DefaultMultipliers,                     ! Dry-Bulb Temperature Range Modifier Type
  ,                                       ! Dry-Bulb Temperature Range Modifier Schedule Name
  ASHRAEClearSky;                         ! Solar Model Indicator

OS:ComponentData,
  {5b6830b1-4a58-470b-9de7-8cedd2e79572}, ! Handle
  Component Data 1,                       ! Name
  {4edbc2f4-3b41-4c71-8cf3-b8af03fecb82}, ! UUID
  {0eca14f2-1c40-4b30-954f-4205d78dc0f9}, ! Version UUID
  1366309189,                             ! Creation Timestamp
  1366309189,                             ! Version Timestamp
  {3bfb3cb3-480c-4b5e-93fb-a75cf5c112b5}; ! Name of Object 1

