
OS:Version,
  {a43a73c9-34c8-4560-92f5-44a19255dd47}, ! Handle
  0.9.3;                                  ! Version Identifier

OS:SizingPeriod:DesignDay,
  {3b0ba40c-bd06-4501-959f-ee8cd77a2baa}, ! Handle
  St Louis/Int'l Airport Ann Htg 99.6% Condns DB, ! Name
  -15.5,                                  ! Maximum Dry-Bulb Temperature {C}
  0,                                      ! Daily Dry-Bulb Temperature Range {deltaC}
  -15.5,                                  ! Humidity Indicating Conditions at Maximum Dry-Bulb {BasedOnField A3}
  99276,                                  ! Barometric Pressure {Pa}
  4.7,                                    ! Wind Speed {m/s}
  300,                                    ! Wind Direction {deg}
  0,                                      ! Sky Clearness
  0,                                      ! Rain Indicator
  0,                                      ! Snow Indicator
  21,                                     ! Day of Month
  1,                                      ! Month
  WinterDesignDay,                        ! Day Type
  0,                                      ! Daylight Saving Time Indicator
  Wetbulb,                                ! Humidity Indicating Type
  ,                                       ! Humidity Indicating Day Schedule Name
  DefaultMultipliers,                     ! Dry-Bulb Temperature Range Modifier Type
  ,                                       ! Dry-Bulb Temperature Range Modifier Schedule Name
  ASHRAEClearSky;                         ! Solar Model Indicator

OS:ComponentData,
  {843d3cfb-bdd5-4403-8610-eca0c450dd18}, ! Handle
  Component Data 1,                       ! Name
  {d41c47ed-c91e-4c98-8463-9b8ce0746ccd}, ! UUID
  {9571185a-a613-46da-8159-2e6ad7ea326f}, ! Version UUID
  1366308577,                             ! Creation Timestamp
  1366308577,                             ! Version Timestamp
  {3b0ba40c-bd06-4501-959f-ee8cd77a2baa}; ! Name of Object 1

