
OS:Version,
  {6bdd782e-33b5-46d5-9f90-96d5de0e0ef5}, ! Handle
  0.9.3;                                  ! Version Identifier

OS:SizingPeriod:DesignDay,
  {71ee1532-0ebb-45f0-8bd7-fd1b557f7be9}, ! Handle
  Rock Springs Arpt  Green Rive Ann Clg 1% Condns Enth=>MDB, ! Name
  24.3,                                   ! Maximum Dry-Bulb Temperature {C}
  15.3,                                   ! Daily Dry-Bulb Temperature Range {deltaC}
  45500,                                  ! Humidity Indicating Conditions at Maximum Dry-Bulb {BasedOnField A3}
  89875,                                  ! Barometric Pressure {Pa}
  5.3,                                    ! Wind Speed {m/s}
  260,                                    ! Wind Direction {deg}
  0,                                      ! Sky Clearness
  0,                                      ! Rain Indicator
  0,                                      ! Snow Indicator
  21,                                     ! Day of Month
  7,                                      ! Month
  SummerDesignDay,                        ! Day Type
  0,                                      ! Daylight Saving Time Indicator
  Enthalpy,                               ! Humidity Indicating Type
  ,                                       ! Humidity Indicating Day Schedule Name
  DefaultMultipliers,                     ! Dry-Bulb Temperature Range Modifier Type
  ,                                       ! Dry-Bulb Temperature Range Modifier Schedule Name
  ASHRAETau,                              ! Solar Model Indicator
  ,                                       ! Beam Solar Day Schedule Name
  ,                                       ! Diffuse Solar Day Schedule Name
  0.402,                                  ! ASHRAE Taub {dimensionless}
  1.99;                                   ! ASHRAE Taud {dimensionless}

