
OS:Version,
  {01e91c36-c0e0-4974-8278-66278de96c11}, ! Handle
  0.9.3;                                  ! Version Identifier

OS:SizingPeriod:DesignDay,
  {c3eb5e36-d621-4da3-87bf-9eb09f6c385c}, ! Handle
  SAINT_CLOUD Ann Htg Wind 99.6% Condns WS=>MCDB, ! Name
  -9.1,                                   ! Maximum Dry-Bulb Temperature {C}
  0,                                      ! Daily Dry-Bulb Temperature Range {deltaC}
  -9.1,                                   ! Humidity Indicating Conditions at Maximum Dry-Bulb {BasedOnField A3}
  97621,                                  ! Barometric Pressure {Pa}
  11.4,                                   ! Wind Speed {m/s}
  310,                                    ! Wind Direction {deg}
  0,                                      ! Sky Clearness
  0,                                      ! Rain Indicator
  0,                                      ! Snow Indicator
  21,                                     ! Day of Month
  1,                                      ! Month
  WinterDesignDay,                        ! Day Type
  0,                                      ! Daylight Saving Time Indicator
  Wetbulb,                                ! Humidity Indicating Type
  ,                                       ! Humidity Indicating Day Schedule Name
  DefaultMultipliers,                     ! Dry-Bulb Temperature Range Modifier Type
  ,                                       ! Dry-Bulb Temperature Range Modifier Schedule Name
  ASHRAEClearSky;                         ! Solar Model Indicator

OS:ComponentData,
  {b15b9550-a45a-494a-b3d8-e395f127b6c0}, ! Handle
  Component Data 1,                       ! Name
  {34745583-f572-4e4a-bc16-605e5faa6814}, ! UUID
  {88a6aa66-97f0-4b60-aa23-c7f8c397963c}, ! Version UUID
  1366308409,                             ! Creation Timestamp
  1366308409,                             ! Version Timestamp
  {c3eb5e36-d621-4da3-87bf-9eb09f6c385c}; ! Name of Object 1

