
OS:Version,
  {59bb06dd-b6e2-465f-a90d-ede1307bdef7}, ! Handle
  0.9.3;                                  ! Version Identifier

OS:SizingPeriod:DesignDay,
  {5600d718-fc96-4f2a-b4c6-0e3d54087494}, ! Handle
  Ohio State Universi Ann Clg 1% Condns WB=>MDB, ! Name
  28.8,                                   ! Maximum Dry-Bulb Temperature {C}
  10.4,                                   ! Daily Dry-Bulb Temperature Range {deltaC}
  23.9,                                   ! Humidity Indicating Conditions at Maximum Dry-Bulb {BasedOnField A3}
  97971,                                  ! Barometric Pressure {Pa}
  4.5,                                    ! Wind Speed {m/s}
  240,                                    ! Wind Direction {deg}
  0,                                      ! Sky Clearness
  0,                                      ! Rain Indicator
  0,                                      ! Snow Indicator
  21,                                     ! Day of Month
  7,                                      ! Month
  SummerDesignDay,                        ! Day Type
  0,                                      ! Daylight Saving Time Indicator
  Wetbulb,                                ! Humidity Indicating Type
  ,                                       ! Humidity Indicating Day Schedule Name
  DefaultMultipliers,                     ! Dry-Bulb Temperature Range Modifier Type
  ,                                       ! Dry-Bulb Temperature Range Modifier Schedule Name
  ASHRAETau,                              ! Solar Model Indicator
  ,                                       ! Beam Solar Day Schedule Name
  ,                                       ! Diffuse Solar Day Schedule Name
  0.479,                                  ! ASHRAE Taub {dimensionless}
  1.957;                                  ! ASHRAE Taud {dimensionless}

OS:ComponentData,
  {24bdb3ef-1469-4424-be42-58229b57a587}, ! Handle
  Component Data 1,                       ! Name
  {1b59ee60-aa2e-4619-a316-ea26b1c5d77e}, ! UUID
  {60a395a7-4ac5-48b5-a8ea-a04d820f53c8}, ! Version UUID
  1366309841,                             ! Creation Timestamp
  1366309841,                             ! Version Timestamp
  {5600d718-fc96-4f2a-b4c6-0e3d54087494}; ! Name of Object 1

