
OS:Version,
  {36d993b0-e486-4c28-a68b-08e0c8743a88}, ! Handle
  0.9.3;                                  ! Version Identifier

OS:SizingPeriod:DesignDay,
  {eefc3648-cb35-4edf-8cac-92958866b850}, ! Handle
  Nashville International Ap Ann Clg 1% Condns Enth=>MDB, ! Name
  31,                                     ! Maximum Dry-Bulb Temperature {C}
  10.2,                                   ! Daily Dry-Bulb Temperature Range {deltaC}
  77000,                                  ! Humidity Indicating Conditions at Maximum Dry-Bulb {BasedOnField A3}
  99217,                                  ! Barometric Pressure {Pa}
  3.5,                                    ! Wind Speed {m/s}
  230,                                    ! Wind Direction {deg}
  0,                                      ! Sky Clearness
  0,                                      ! Rain Indicator
  0,                                      ! Snow Indicator
  21,                                     ! Day of Month
  7,                                      ! Month
  SummerDesignDay,                        ! Day Type
  0,                                      ! Daylight Saving Time Indicator
  Enthalpy,                               ! Humidity Indicating Type
  ,                                       ! Humidity Indicating Day Schedule Name
  DefaultMultipliers,                     ! Dry-Bulb Temperature Range Modifier Type
  ,                                       ! Dry-Bulb Temperature Range Modifier Schedule Name
  ASHRAETau,                              ! Solar Model Indicator
  ,                                       ! Beam Solar Day Schedule Name
  ,                                       ! Diffuse Solar Day Schedule Name
  0.524,                                  ! ASHRAE Taub {dimensionless}
  1.855;                                  ! ASHRAE Taud {dimensionless}

