
OS:Version,
  {8aff183b-70d7-47d8-9abc-9300331e651c}, ! Handle
  0.9.3;                                  ! Version Identifier

OS:SizingPeriod:DesignDay,
  {fbd63fd9-a4d2-4616-91e1-9c0649669bf8}, ! Handle
  Walnut Ridge  Awos Ann Htg 99.6% Condns DB, ! Name
  -9.3,                                   ! Maximum Dry-Bulb Temperature {C}
  0,                                      ! Daily Dry-Bulb Temperature Range {deltaC}
  -9.3,                                   ! Humidity Indicating Conditions at Maximum Dry-Bulb {BasedOnField A3}
  100332,                                 ! Barometric Pressure {Pa}
  4.1,                                    ! Wind Speed {m/s}
  320,                                    ! Wind Direction {deg}
  0,                                      ! Sky Clearness
  0,                                      ! Rain Indicator
  0,                                      ! Snow Indicator
  21,                                     ! Day of Month
  1,                                      ! Month
  WinterDesignDay,                        ! Day Type
  0,                                      ! Daylight Saving Time Indicator
  Wetbulb,                                ! Humidity Indicating Type
  ,                                       ! Humidity Indicating Day Schedule Name
  DefaultMultipliers,                     ! Dry-Bulb Temperature Range Modifier Type
  ,                                       ! Dry-Bulb Temperature Range Modifier Schedule Name
  ASHRAEClearSky;                         ! Solar Model Indicator

OS:ComponentData,
  {2601740a-e3b7-49e4-94ff-800fc66b19f8}, ! Handle
  Component Data 1,                       ! Name
  {54b8cd4c-1ece-4df7-8a88-d35cdd5f3f2a}, ! UUID
  {c6df3635-4ca6-41b9-a3bb-e1c7d0080729}, ! Version UUID
  1366306257,                             ! Creation Timestamp
  1366306257,                             ! Version Timestamp
  {fbd63fd9-a4d2-4616-91e1-9c0649669bf8}; ! Name of Object 1

