
OS:Version,
  {cb843644-bd21-4c97-b6b7-30c2b60634e4}, ! Handle
  0.9.3;                                  ! Version Identifier

OS:SizingPeriod:DesignDay,
  {6ad21e34-641b-402d-83dc-a0fd69785bdb}, ! Handle
  NEW_YORK Ann Clg 1% Condns Enth=>MDB,   ! Name
  28.1,                                   ! Maximum Dry-Bulb Temperature {C}
  7.4,                                    ! Daily Dry-Bulb Temperature Range {deltaC}
  73100,                                  ! Humidity Indicating Conditions at Maximum Dry-Bulb {BasedOnField A3}
  100642,                                 ! Barometric Pressure {Pa}
  5.6,                                    ! Wind Speed {m/s}
  230,                                    ! Wind Direction {deg}
  0,                                      ! Sky Clearness
  0,                                      ! Rain Indicator
  0,                                      ! Snow Indicator
  21,                                     ! Day of Month
  7,                                      ! Month
  SummerDesignDay,                        ! Day Type
  0,                                      ! Daylight Saving Time Indicator
  Enthalpy,                               ! Humidity Indicating Type
  ,                                       ! Humidity Indicating Day Schedule Name
  DefaultMultipliers,                     ! Dry-Bulb Temperature Range Modifier Type
  ,                                       ! Dry-Bulb Temperature Range Modifier Schedule Name
  ASHRAETau,                              ! Solar Model Indicator
  ,                                       ! Beam Solar Day Schedule Name
  ,                                       ! Diffuse Solar Day Schedule Name
  0.541,                                  ! ASHRAE Taub {dimensionless}
  1.8;                                    ! ASHRAE Taud {dimensionless}

OS:ComponentData,
  {8b3bf592-553a-4329-9aef-32267539d8b1}, ! Handle
  Component Data 1,                       ! Name
  {e6ec777c-4000-4e74-a4f4-f92bec783d89}, ! UUID
  {b0261312-8860-4280-b8bb-dfca27f29100}, ! Version UUID
  1366309690,                             ! Creation Timestamp
  1366309690,                             ! Version Timestamp
  {6ad21e34-641b-402d-83dc-a0fd69785bdb}; ! Name of Object 1

