
OS:Version,
  {335a3ea2-27ce-46c2-bc03-4a481cb4f1ce}, ! Handle
  0.9.3;                                  ! Version Identifier

OS:SizingPeriod:DesignDay,
  {8ea7f9ca-2c36-4b75-bcae-d4709cd5d4e0}, ! Handle
  Mayport Ns Ann Htg 99.6% Condns DB,     ! Name
  1.3,                                    ! Maximum Dry-Bulb Temperature {C}
  0,                                      ! Daily Dry-Bulb Temperature Range {deltaC}
  1.3,                                    ! Humidity Indicating Conditions at Maximum Dry-Bulb {BasedOnField A3}
  101265,                                 ! Barometric Pressure {Pa}
  3,                                      ! Wind Speed {m/s}
  310,                                    ! Wind Direction {deg}
  0,                                      ! Sky Clearness
  0,                                      ! Rain Indicator
  0,                                      ! Snow Indicator
  21,                                     ! Day of Month
  1,                                      ! Month
  WinterDesignDay,                        ! Day Type
  0,                                      ! Daylight Saving Time Indicator
  Wetbulb,                                ! Humidity Indicating Type
  ,                                       ! Humidity Indicating Day Schedule Name
  DefaultMultipliers,                     ! Dry-Bulb Temperature Range Modifier Type
  ,                                       ! Dry-Bulb Temperature Range Modifier Schedule Name
  ASHRAEClearSky;                         ! Solar Model Indicator

OS:ComponentData,
  {1886f7cb-ecea-493e-8bb4-1b56f93916ff}, ! Handle
  Component Data 1,                       ! Name
  {e22b6351-2c7a-46a4-8709-d833ba78b1ee}, ! UUID
  {f22d3808-ab18-459d-b78e-92d4f604c0b0}, ! Version UUID
  1366306848,                             ! Creation Timestamp
  1366306848,                             ! Version Timestamp
  {8ea7f9ca-2c36-4b75-bcae-d4709cd5d4e0}; ! Name of Object 1

