
OS:Version,
  {96cc663b-c8cf-4401-81d7-f7038c9fe9e3}, ! Handle
  0.9.3;                                  ! Version Identifier

OS:SizingPeriod:DesignDay,
  {277040a2-3f93-49fa-b1be-fe7c092ad04d}, ! Handle
  Spokane International Ap  Che Ann Htg Wind 99.6% Condns WS=>MCDB, ! Name
  2.8,                                    ! Maximum Dry-Bulb Temperature {C}
  0,                                      ! Daily Dry-Bulb Temperature Range {deltaC}
  2.8,                                    ! Humidity Indicating Conditions at Maximum Dry-Bulb {BasedOnField A3}
  92332,                                  ! Barometric Pressure {Pa}
  13.9,                                   ! Wind Speed {m/s}
  50,                                     ! Wind Direction {deg}
  0,                                      ! Sky Clearness
  0,                                      ! Rain Indicator
  0,                                      ! Snow Indicator
  21,                                     ! Day of Month
  12,                                     ! Month
  WinterDesignDay,                        ! Day Type
  0,                                      ! Daylight Saving Time Indicator
  Wetbulb,                                ! Humidity Indicating Type
  ,                                       ! Humidity Indicating Day Schedule Name
  DefaultMultipliers,                     ! Dry-Bulb Temperature Range Modifier Type
  ,                                       ! Dry-Bulb Temperature Range Modifier Schedule Name
  ASHRAEClearSky;                         ! Solar Model Indicator

OS:ComponentData,
  {d800361b-0562-4801-b842-c76d6ad9d000}, ! Handle
  Component Data 1,                       ! Name
  {c6d10311-bacc-43ef-b9a4-cfb470985e5e}, ! UUID
  {7d2329a4-fc90-43a7-848e-f915853d9182}, ! Version UUID
  1366311394,                             ! Creation Timestamp
  1366311394,                             ! Version Timestamp
  {277040a2-3f93-49fa-b1be-fe7c092ad04d}; ! Name of Object 1

