
OS:Version,
  {c199e01f-c398-45b8-a5e1-75f214fae02f}, ! Handle
  0.9.3;                                  ! Version Identifier

OS:SizingPeriod:DesignDay,
  {3266a187-1935-4465-8273-e4dc0deaadac}, ! Handle
  MOBILE Ann Clg 1% Condns DB=>MWB,       ! Name
  33.2,                                   ! Maximum Dry-Bulb Temperature {C}
  9.4,                                    ! Daily Dry-Bulb Temperature Range {deltaC}
  24.7,                                   ! Humidity Indicating Conditions at Maximum Dry-Bulb {BasedOnField A3}
  100523,                                 ! Barometric Pressure {Pa}
  3.5,                                    ! Wind Speed {m/s}
  350,                                    ! Wind Direction {deg}
  0,                                      ! Sky Clearness
  0,                                      ! Rain Indicator
  0,                                      ! Snow Indicator
  21,                                     ! Day of Month
  7,                                      ! Month
  SummerDesignDay,                        ! Day Type
  0,                                      ! Daylight Saving Time Indicator
  Wetbulb,                                ! Humidity Indicating Type
  ,                                       ! Humidity Indicating Day Schedule Name
  DefaultMultipliers,                     ! Dry-Bulb Temperature Range Modifier Type
  ,                                       ! Dry-Bulb Temperature Range Modifier Schedule Name
  ASHRAETau,                              ! Solar Model Indicator
  ,                                       ! Beam Solar Day Schedule Name
  ,                                       ! Diffuse Solar Day Schedule Name
  0.538,                                  ! ASHRAE Taub {dimensionless}
  1.867;                                  ! ASHRAE Taud {dimensionless}

