
OS:Version,
  {bd015e1b-a3b0-4d37-a618-1c278d493dff}, ! Handle
  0.9.3;                                  ! Version Identifier

OS:SizingPeriod:DesignDay,
  {5bdabfa9-e004-45fb-9c90-3060cb9b7846}, ! Handle
  Newton  Awos Ann Htg Wind 99% Condns WS=>MCDB, ! Name
  2.6,                                    ! Maximum Dry-Bulb Temperature {C}
  0,                                      ! Daily Dry-Bulb Temperature Range {deltaC}
  2.6,                                    ! Humidity Indicating Conditions at Maximum Dry-Bulb {BasedOnField A3}
  95839,                                  ! Barometric Pressure {Pa}
  12.8,                                   ! Wind Speed {m/s}
  0,                                      ! Wind Direction {deg}
  0,                                      ! Sky Clearness
  0,                                      ! Rain Indicator
  0,                                      ! Snow Indicator
  21,                                     ! Day of Month
  1,                                      ! Month
  WinterDesignDay,                        ! Day Type
  0,                                      ! Daylight Saving Time Indicator
  Wetbulb,                                ! Humidity Indicating Type
  ,                                       ! Humidity Indicating Day Schedule Name
  DefaultMultipliers,                     ! Dry-Bulb Temperature Range Modifier Type
  ,                                       ! Dry-Bulb Temperature Range Modifier Schedule Name
  ASHRAEClearSky;                         ! Solar Model Indicator

OS:ComponentData,
  {38b7bd87-961b-4573-a22d-5dc8d9720e0b}, ! Handle
  Component Data 1,                       ! Name
  {2ca74e94-fd06-482c-851e-2c8d5facbe23}, ! UUID
  {b0a34405-af6a-4a87-bb6a-79a395413189}, ! Version UUID
  1366307562,                             ! Creation Timestamp
  1366307562,                             ! Version Timestamp
  {5bdabfa9-e004-45fb-9c90-3060cb9b7846}; ! Name of Object 1

