
OS:Version,
  {e1e5c223-9b13-466d-b2d9-f0b775154702}, ! Handle
  0.9.3;                                  ! Version Identifier

OS:SizingPeriod:DesignDay,
  {2fa19358-1ded-4830-a43d-21249674e62b}, ! Handle
  Walla Walla City County Ap Ann Clg .4% Condns Enth=>MDB, ! Name
  33.8,                                   ! Maximum Dry-Bulb Temperature {C}
  15.1,                                   ! Daily Dry-Bulb Temperature Range {deltaC}
  60200,                                  ! Humidity Indicating Conditions at Maximum Dry-Bulb {BasedOnField A3}
  97132,                                  ! Barometric Pressure {Pa}
  3.8,                                    ! Wind Speed {m/s}
  240,                                    ! Wind Direction {deg}
  0,                                      ! Sky Clearness
  0,                                      ! Rain Indicator
  0,                                      ! Snow Indicator
  21,                                     ! Day of Month
  7,                                      ! Month
  SummerDesignDay,                        ! Day Type
  0,                                      ! Daylight Saving Time Indicator
  Enthalpy,                               ! Humidity Indicating Type
  ,                                       ! Humidity Indicating Day Schedule Name
  DefaultMultipliers,                     ! Dry-Bulb Temperature Range Modifier Type
  ,                                       ! Dry-Bulb Temperature Range Modifier Schedule Name
  ASHRAETau,                              ! Solar Model Indicator
  ,                                       ! Beam Solar Day Schedule Name
  ,                                       ! Diffuse Solar Day Schedule Name
  0.389,                                  ! ASHRAE Taub {dimensionless}
  2.256;                                  ! ASHRAE Taud {dimensionless}

OS:ComponentData,
  {e7ff9309-c337-45a8-9ded-fc51c9c743f0}, ! Handle
  Component Data 1,                       ! Name
  {49f564d2-e839-4702-9286-90625f5da1b1}, ! UUID
  {3268b947-fd82-4d18-840a-44a4b53eeb06}, ! Version UUID
  1366311422,                             ! Creation Timestamp
  1366311422,                             ! Version Timestamp
  {2fa19358-1ded-4830-a43d-21249674e62b}; ! Name of Object 1

