
OS:Version,
  {6905eec2-ff56-4543-b411-4d6b3f341e05}, ! Handle
  0.9.3;                                  ! Version Identifier

OS:SizingPeriod:DesignDay,
  {168f1771-68c5-4586-8cd0-61a60605071f}, ! Handle
  Salina Municipal Ap Ann Hum_n 99% Condns DP=>MCDB, ! Name
  -12.6,                                  ! Maximum Dry-Bulb Temperature {C}
  0,                                      ! Daily Dry-Bulb Temperature Range {deltaC}
  -18.7,                                  ! Humidity Indicating Conditions at Maximum Dry-Bulb {BasedOnField A3}
  96785,                                  ! Barometric Pressure {Pa}
  4.5,                                    ! Wind Speed {m/s}
  350,                                    ! Wind Direction {deg}
  0,                                      ! Sky Clearness
  0,                                      ! Rain Indicator
  0,                                      ! Snow Indicator
  21,                                     ! Day of Month
  1,                                      ! Month
  WinterDesignDay,                        ! Day Type
  0,                                      ! Daylight Saving Time Indicator
  Dewpoint,                               ! Humidity Indicating Type
  ,                                       ! Humidity Indicating Day Schedule Name
  DefaultMultipliers,                     ! Dry-Bulb Temperature Range Modifier Type
  ,                                       ! Dry-Bulb Temperature Range Modifier Schedule Name
  ASHRAEClearSky;                         ! Solar Model Indicator

OS:ComponentData,
  {28f94560-efcb-4df7-8f6f-7c253a66ae99}, ! Handle
  Component Data 1,                       ! Name
  {5c2c9a77-6c6f-4460-bfa4-616d82f2ccb0}, ! UUID
  {7eba89bc-c3cf-406a-99f4-a710d37c7010}, ! Version UUID
  1366307575,                             ! Creation Timestamp
  1366307575,                             ! Version Timestamp
  {168f1771-68c5-4586-8cd0-61a60605071f}; ! Name of Object 1

