
OS:Version,
  {2d779d6a-6ee1-43f5-b127-8a5d9fb72d76}, ! Handle
  0.9.3;                                  ! Version Identifier

OS:SizingPeriod:DesignDay,
  {01549773-3e8d-4051-94f2-5292d936d114}, ! Handle
  St Clair County Int Ann Clg .4% Condns Enth=>MDB, ! Name
  29.4,                                   ! Maximum Dry-Bulb Temperature {C}
  12.3,                                   ! Daily Dry-Bulb Temperature Range {deltaC}
  75600,                                  ! Humidity Indicating Conditions at Maximum Dry-Bulb {BasedOnField A3}
  98969,                                  ! Barometric Pressure {Pa}
  3.6,                                    ! Wind Speed {m/s}
  170,                                    ! Wind Direction {deg}
  0,                                      ! Sky Clearness
  0,                                      ! Rain Indicator
  0,                                      ! Snow Indicator
  21,                                     ! Day of Month
  7,                                      ! Month
  SummerDesignDay,                        ! Day Type
  0,                                      ! Daylight Saving Time Indicator
  Enthalpy,                               ! Humidity Indicating Type
  ,                                       ! Humidity Indicating Day Schedule Name
  DefaultMultipliers,                     ! Dry-Bulb Temperature Range Modifier Type
  ,                                       ! Dry-Bulb Temperature Range Modifier Schedule Name
  ASHRAETau,                              ! Solar Model Indicator
  ,                                       ! Beam Solar Day Schedule Name
  ,                                       ! Diffuse Solar Day Schedule Name
  0.47,                                   ! ASHRAE Taub {dimensionless}
  1.976;                                  ! ASHRAE Taud {dimensionless}

OS:ComponentData,
  {98e3de01-36e9-4d60-8d01-a6ee8fbf22eb}, ! Handle
  Component Data 1,                       ! Name
  {b7e7deb0-be2a-45fe-8fa6-0d4c306735d5}, ! UUID
  {0a357ca7-320e-49b9-8a35-dbac24f234f7}, ! Version UUID
  1366308117,                             ! Creation Timestamp
  1366308117,                             ! Version Timestamp
  {01549773-3e8d-4051-94f2-5292d936d114}; ! Name of Object 1

