
OS:Version,
  {2835167d-05cd-4931-a2a3-fd45b23a2a9f}, ! Handle
  0.9.3;                                  ! Version Identifier

OS:SizingPeriod:DesignDay,
  {a4d89fc9-cf28-4aaf-ad00-b90a764f4c8d}, ! Handle
  Reno Tahoe International Ap Ann Htg Wind 99% Condns WS=>MCDB, ! Name
  8.2,                                    ! Maximum Dry-Bulb Temperature {C}
  0,                                      ! Daily Dry-Bulb Temperature Range {deltaC}
  8.2,                                    ! Humidity Indicating Conditions at Maximum Dry-Bulb {BasedOnField A3}
  86208,                                  ! Barometric Pressure {Pa}
  11.9,                                   ! Wind Speed {m/s}
  180,                                    ! Wind Direction {deg}
  0,                                      ! Sky Clearness
  0,                                      ! Rain Indicator
  0,                                      ! Snow Indicator
  21,                                     ! Day of Month
  1,                                      ! Month
  WinterDesignDay,                        ! Day Type
  0,                                      ! Daylight Saving Time Indicator
  Wetbulb,                                ! Humidity Indicating Type
  ,                                       ! Humidity Indicating Day Schedule Name
  DefaultMultipliers,                     ! Dry-Bulb Temperature Range Modifier Type
  ,                                       ! Dry-Bulb Temperature Range Modifier Schedule Name
  ASHRAEClearSky;                         ! Solar Model Indicator

OS:ComponentData,
  {29eb7206-fd1a-4534-8fe7-de1a0bdc86fa}, ! Handle
  Component Data 1,                       ! Name
  {ac4fe35d-0936-43f6-8dfe-6cfcc34c3b48}, ! UUID
  {e81c28a7-44e9-46d4-83d3-fd4c130db65f}, ! Version UUID
  1366309535,                             ! Creation Timestamp
  1366309535,                             ! Version Timestamp
  {a4d89fc9-cf28-4aaf-ad00-b90a764f4c8d}; ! Name of Object 1

