
OS:Version,
  {d72cc144-a593-4eb3-b4c3-918804caafde}, ! Handle
  0.9.3;                                  ! Version Identifier

OS:SizingPeriod:DesignDay,
  {e978f1ab-dc3d-49a1-85b8-f5f57a010a78}, ! Handle
  Reno Tahoe International Ap Ann Htg Wind 99% Condns WS=>MCDB, ! Name
  8.2,                                    ! Maximum Dry-Bulb Temperature {C}
  0,                                      ! Daily Dry-Bulb Temperature Range {deltaC}
  8.2,                                    ! Humidity Indicating Conditions at Maximum Dry-Bulb {BasedOnField A3}
  86208,                                  ! Barometric Pressure {Pa}
  11.9,                                   ! Wind Speed {m/s}
  180,                                    ! Wind Direction {deg}
  0,                                      ! Sky Clearness
  0,                                      ! Rain Indicator
  0,                                      ! Snow Indicator
  21,                                     ! Day of Month
  1,                                      ! Month
  WinterDesignDay,                        ! Day Type
  0,                                      ! Daylight Saving Time Indicator
  Wetbulb,                                ! Humidity Indicating Type
  ,                                       ! Humidity Indicating Day Schedule Name
  DefaultMultipliers,                     ! Dry-Bulb Temperature Range Modifier Type
  ,                                       ! Dry-Bulb Temperature Range Modifier Schedule Name
  ASHRAEClearSky;                         ! Solar Model Indicator

