
OS:Version,
  {0354bdc7-4b7b-405f-ad7c-6b11729a06d2}, ! Handle
  0.9.3;                                  ! Version Identifier

OS:SizingPeriod:DesignDay,
  {5f1034ba-5e5c-47bd-9e94-83190e3dbffb}, ! Handle
  Oscoda Wurtsmith Afb Ann Clg 1% Condns DP=>MDB, ! Name
  26,                                     ! Maximum Dry-Bulb Temperature {C}
  11.8,                                   ! Daily Dry-Bulb Temperature Range {deltaC}
  21.4,                                   ! Humidity Indicating Conditions at Maximum Dry-Bulb {BasedOnField A3}
  99087,                                  ! Barometric Pressure {Pa}
  5.4,                                    ! Wind Speed {m/s}
  200,                                    ! Wind Direction {deg}
  0,                                      ! Sky Clearness
  0,                                      ! Rain Indicator
  0,                                      ! Snow Indicator
  21,                                     ! Day of Month
  7,                                      ! Month
  SummerDesignDay,                        ! Day Type
  0,                                      ! Daylight Saving Time Indicator
  Dewpoint,                               ! Humidity Indicating Type
  ,                                       ! Humidity Indicating Day Schedule Name
  DefaultMultipliers,                     ! Dry-Bulb Temperature Range Modifier Type
  ,                                       ! Dry-Bulb Temperature Range Modifier Schedule Name
  ASHRAETau,                              ! Solar Model Indicator
  ,                                       ! Beam Solar Day Schedule Name
  ,                                       ! Diffuse Solar Day Schedule Name
  0.426,                                  ! ASHRAE Taub {dimensionless}
  2.154;                                  ! ASHRAE Taud {dimensionless}

OS:ComponentData,
  {c4f7cd03-c72c-49f1-be6d-f0a38c22f3d3}, ! Handle
  Component Data 1,                       ! Name
  {6e5fb1d4-fc7b-491c-b1d1-8afa0616b8eb}, ! UUID
  {cd8aecf2-24a4-4c94-bf1d-92ece31f644e}, ! Version UUID
  1366308084,                             ! Creation Timestamp
  1366308084,                             ! Version Timestamp
  {5f1034ba-5e5c-47bd-9e94-83190e3dbffb}; ! Name of Object 1

