
OS:Version,
  {6f397e0e-d487-48ab-b788-b001407f8fc3}, ! Handle
  0.9.3;                                  ! Version Identifier

OS:SizingPeriod:DesignDay,
  {09bacd5d-95cd-4858-9ee5-b4a18b9b64ec}, ! Handle
  TUCSON Ann Clg .4% Condns DB=>MWB,      ! Name
  41.1,                                   ! Maximum Dry-Bulb Temperature {C}
  13.8,                                   ! Daily Dry-Bulb Temperature Range {deltaC}
  19,                                     ! Humidity Indicating Conditions at Maximum Dry-Bulb {BasedOnField A3}
  92310,                                  ! Barometric Pressure {Pa}
  5,                                      ! Wind Speed {m/s}
  300,                                    ! Wind Direction {deg}
  0,                                      ! Sky Clearness
  0,                                      ! Rain Indicator
  0,                                      ! Snow Indicator
  21,                                     ! Day of Month
  7,                                      ! Month
  SummerDesignDay,                        ! Day Type
  0,                                      ! Daylight Saving Time Indicator
  Wetbulb,                                ! Humidity Indicating Type
  ,                                       ! Humidity Indicating Day Schedule Name
  DefaultMultipliers,                     ! Dry-Bulb Temperature Range Modifier Type
  ,                                       ! Dry-Bulb Temperature Range Modifier Schedule Name
  ASHRAETau,                              ! Solar Model Indicator
  ,                                       ! Beam Solar Day Schedule Name
  ,                                       ! Diffuse Solar Day Schedule Name
  0.555,                                  ! ASHRAE Taub {dimensionless}
  1.73;                                   ! ASHRAE Taud {dimensionless}

OS:ComponentData,
  {39907ac4-9e79-49c7-a7f1-32ee375a7fb2}, ! Handle
  Component Data 1,                       ! Name
  {d0b2a641-50d6-4ff4-9a73-7131d90b2216}, ! UUID
  {aa99f921-e82b-43d6-9794-78e18601943f}, ! Version UUID
  1366306317,                             ! Creation Timestamp
  1366306317,                             ! Version Timestamp
  {09bacd5d-95cd-4858-9ee5-b4a18b9b64ec}; ! Name of Object 1

