
OS:Version,
  {0d31006a-0284-49f2-82e1-6e01b4bf0c20}, ! Handle
  0.9.3;                                  ! Version Identifier

OS:SizingPeriod:DesignDay,
  {0047a0f4-766d-4371-95c9-d9c25649b1dd}, ! Handle
  Mekoryuk Ann Clg 1% Condns DB=>MWB,     ! Name
  14,                                     ! Maximum Dry-Bulb Temperature {C}
  4.6,                                    ! Daily Dry-Bulb Temperature Range {deltaC}
  11.3,                                   ! Humidity Indicating Conditions at Maximum Dry-Bulb {BasedOnField A3}
  101145,                                 ! Barometric Pressure {Pa}
  5.8,                                    ! Wind Speed {m/s}
  180,                                    ! Wind Direction {deg}
  0,                                      ! Sky Clearness
  0,                                      ! Rain Indicator
  0,                                      ! Snow Indicator
  21,                                     ! Day of Month
  8,                                      ! Month
  SummerDesignDay,                        ! Day Type
  0,                                      ! Daylight Saving Time Indicator
  Wetbulb,                                ! Humidity Indicating Type
  ,                                       ! Humidity Indicating Day Schedule Name
  DefaultMultipliers,                     ! Dry-Bulb Temperature Range Modifier Type
  ,                                       ! Dry-Bulb Temperature Range Modifier Schedule Name
  ASHRAETau,                              ! Solar Model Indicator
  ,                                       ! Beam Solar Day Schedule Name
  ,                                       ! Diffuse Solar Day Schedule Name
  0.386,                                  ! ASHRAE Taub {dimensionless}
  2.213;                                  ! ASHRAE Taud {dimensionless}

OS:ComponentData,
  {f1fe902f-2db6-4197-b3c0-2ef8ddd01d9b}, ! Handle
  Component Data 1,                       ! Name
  {cad2cec8-b5e2-4226-8733-ca52e0b0f75c}, ! UUID
  {abd3a076-0493-489e-a6a8-8799913d3c92}, ! Version UUID
  1366305424,                             ! Creation Timestamp
  1366305424,                             ! Version Timestamp
  {0047a0f4-766d-4371-95c9-d9c25649b1dd}; ! Name of Object 1

