
OS:Version,
  {5972f93b-5ee1-4aaa-bfb9-99516f5a9541}, ! Handle
  0.9.3;                                  ! Version Identifier

OS:SizingPeriod:DesignDay,
  {fda0f17b-674c-4fe9-8ad0-15ffde02a399}, ! Handle
  Macon Middle Ga Regional Ap Ann Htg Wind 99% Condns WS=>MCDB, ! Name
  8.9,                                    ! Maximum Dry-Bulb Temperature {C}
  0,                                      ! Daily Dry-Bulb Temperature Range {deltaC}
  8.9,                                    ! Humidity Indicating Conditions at Maximum Dry-Bulb {BasedOnField A3}
  100034,                                 ! Barometric Pressure {Pa}
  8.5,                                    ! Wind Speed {m/s}
  300,                                    ! Wind Direction {deg}
  0,                                      ! Sky Clearness
  0,                                      ! Rain Indicator
  0,                                      ! Snow Indicator
  21,                                     ! Day of Month
  1,                                      ! Month
  WinterDesignDay,                        ! Day Type
  0,                                      ! Daylight Saving Time Indicator
  Wetbulb,                                ! Humidity Indicating Type
  ,                                       ! Humidity Indicating Day Schedule Name
  DefaultMultipliers,                     ! Dry-Bulb Temperature Range Modifier Type
  ,                                       ! Dry-Bulb Temperature Range Modifier Schedule Name
  ASHRAEClearSky;                         ! Solar Model Indicator

OS:ComponentData,
  {bdbe0686-c3cd-4d47-bf0f-0cf62270d3c3}, ! Handle
  Component Data 1,                       ! Name
  {c7bf191f-4d1e-4341-a69b-883c94cce733}, ! UUID
  {7c91ffbc-7603-4d5c-bde1-e2eac9f831dc}, ! Version UUID
  1366307023,                             ! Creation Timestamp
  1366307023,                             ! Version Timestamp
  {fda0f17b-674c-4fe9-8ad0-15ffde02a399}; ! Name of Object 1

