
OS:Version,
  {41850fbe-fabd-4c77-bb77-aeb5d072669a}, ! Handle
  0.9.3;                                  ! Version Identifier

OS:SizingPeriod:DesignDay,
  {0202f63b-dfff-44f7-97c1-053fc1d6efe7}, ! Handle
  Omaha Eppley Airfield Ann Htg Wind 99% Condns WS=>MCDB, ! Name
  -6.2,                                   ! Maximum Dry-Bulb Temperature {C}
  0,                                      ! Daily Dry-Bulb Temperature Range {deltaC}
  -6.2,                                   ! Humidity Indicating Conditions at Maximum Dry-Bulb {BasedOnField A3}
  97784,                                  ! Barometric Pressure {Pa}
  12,                                     ! Wind Speed {m/s}
  340,                                    ! Wind Direction {deg}
  0,                                      ! Sky Clearness
  0,                                      ! Rain Indicator
  0,                                      ! Snow Indicator
  21,                                     ! Day of Month
  1,                                      ! Month
  WinterDesignDay,                        ! Day Type
  0,                                      ! Daylight Saving Time Indicator
  Wetbulb,                                ! Humidity Indicating Type
  ,                                       ! Humidity Indicating Day Schedule Name
  DefaultMultipliers,                     ! Dry-Bulb Temperature Range Modifier Type
  ,                                       ! Dry-Bulb Temperature Range Modifier Schedule Name
  ASHRAEClearSky;                         ! Solar Model Indicator

OS:ComponentData,
  {fcc529e3-bd17-4465-b400-67baa5742d01}, ! Handle
  Component Data 1,                       ! Name
  {2c273192-343d-482c-aa28-b3e31da1aa50}, ! UUID
  {91b8b78b-b34f-45d7-9a50-b1e776f769c0}, ! Version UUID
  1366309172,                             ! Creation Timestamp
  1366309172,                             ! Version Timestamp
  {0202f63b-dfff-44f7-97c1-053fc1d6efe7}; ! Name of Object 1

