
OS:Version,
  {3ec6c347-ca0f-4c02-9968-40d1c04c6ecd}, ! Handle
  0.9.3;                                  ! Version Identifier

OS:SizingPeriod:DesignDay,
  {9c2ca01c-9af5-48bd-9bf8-2c8b96083e75}, ! Handle
  St Paul Downtown Ap Ann Clg 2% Condns DP=>MDB, ! Name
  26,                                     ! Maximum Dry-Bulb Temperature {C}
  10.3,                                   ! Daily Dry-Bulb Temperature Range {deltaC}
  21.3,                                   ! Humidity Indicating Conditions at Maximum Dry-Bulb {BasedOnField A3}
  98710,                                  ! Barometric Pressure {Pa}
  5.1,                                    ! Wind Speed {m/s}
  180,                                    ! Wind Direction {deg}
  0,                                      ! Sky Clearness
  0,                                      ! Rain Indicator
  0,                                      ! Snow Indicator
  21,                                     ! Day of Month
  7,                                      ! Month
  SummerDesignDay,                        ! Day Type
  0,                                      ! Daylight Saving Time Indicator
  Dewpoint,                               ! Humidity Indicating Type
  ,                                       ! Humidity Indicating Day Schedule Name
  DefaultMultipliers,                     ! Dry-Bulb Temperature Range Modifier Type
  ,                                       ! Dry-Bulb Temperature Range Modifier Schedule Name
  ASHRAETau,                              ! Solar Model Indicator
  ,                                       ! Beam Solar Day Schedule Name
  ,                                       ! Diffuse Solar Day Schedule Name
  0.417,                                  ! ASHRAE Taub {dimensionless}
  2.181;                                  ! ASHRAE Taud {dimensionless}

OS:ComponentData,
  {fb3fa813-2a58-410f-bef8-a497fb03e8a5}, ! Handle
  Component Data 1,                       ! Name
  {e366bb12-4a50-48cc-9aae-948e64b6cb69}, ! UUID
  {9e064051-383e-4833-ad4e-893e3950351b}, ! Version UUID
  1366308436,                             ! Creation Timestamp
  1366308436,                             ! Version Timestamp
  {9c2ca01c-9af5-48bd-9bf8-2c8b96083e75}; ! Name of Object 1

