
OS:Version,
  {ff5673ea-279f-42e7-ab02-7bcdd4f0947d}, ! Handle
  0.9.3;                                  ! Version Identifier

OS:SizingPeriod:DesignDay,
  {fe964392-33a6-41e3-a0eb-99879d30f8c1}, ! Handle
  Miami Intl Ap Ann Clg 2% Condns Enth=>MDB, ! Name
  30.2,                                   ! Maximum Dry-Bulb Temperature {C}
  6.7,                                    ! Daily Dry-Bulb Temperature Range {deltaC}
  80600,                                  ! Humidity Indicating Conditions at Maximum Dry-Bulb {BasedOnField A3}
  101193,                                 ! Barometric Pressure {Pa}
  4.5,                                    ! Wind Speed {m/s}
  140,                                    ! Wind Direction {deg}
  0,                                      ! Sky Clearness
  0,                                      ! Rain Indicator
  0,                                      ! Snow Indicator
  21,                                     ! Day of Month
  7,                                      ! Month
  SummerDesignDay,                        ! Day Type
  0,                                      ! Daylight Saving Time Indicator
  Enthalpy,                               ! Humidity Indicating Type
  ,                                       ! Humidity Indicating Day Schedule Name
  DefaultMultipliers,                     ! Dry-Bulb Temperature Range Modifier Type
  ,                                       ! Dry-Bulb Temperature Range Modifier Schedule Name
  ASHRAETau,                              ! Solar Model Indicator
  ,                                       ! Beam Solar Day Schedule Name
  ,                                       ! Diffuse Solar Day Schedule Name
  0.528,                                  ! ASHRAE Taub {dimensionless}
  1.905;                                  ! ASHRAE Taud {dimensionless}

OS:ComponentData,
  {f849ae3c-faa2-44c1-b210-674adac39640}, ! Handle
  Component Data 1,                       ! Name
  {45762672-8386-4d53-b8c4-5fdd8df7af75}, ! UUID
  {f7eb0bf6-e97c-43c8-ba9b-9e967429094e}, ! Version UUID
  1366306868,                             ! Creation Timestamp
  1366306868,                             ! Version Timestamp
  {fe964392-33a6-41e3-a0eb-99879d30f8c1}; ! Name of Object 1

