
OS:Version,
  {a0edf1eb-1750-4161-a9df-77c30bafbbaa}, ! Handle
  0.9.3;                                  ! Version Identifier

OS:SizingPeriod:DesignDay,
  {37194225-328c-4870-91b0-10a1ff24d853}, ! Handle
  Whittier Ann Clg .4% Condns DB=>MWB,    ! Name
  21.3,                                   ! Maximum Dry-Bulb Temperature {C}
  5.4,                                    ! Daily Dry-Bulb Temperature Range {deltaC}
  15.4,                                   ! Humidity Indicating Conditions at Maximum Dry-Bulb {BasedOnField A3}
  101217,                                 ! Barometric Pressure {Pa}
  4.9,                                    ! Wind Speed {m/s}
  210,                                    ! Wind Direction {deg}
  0,                                      ! Sky Clearness
  0,                                      ! Rain Indicator
  0,                                      ! Snow Indicator
  21,                                     ! Day of Month
  7,                                      ! Month
  SummerDesignDay,                        ! Day Type
  0,                                      ! Daylight Saving Time Indicator
  Wetbulb,                                ! Humidity Indicating Type
  ,                                       ! Humidity Indicating Day Schedule Name
  DefaultMultipliers,                     ! Dry-Bulb Temperature Range Modifier Type
  ,                                       ! Dry-Bulb Temperature Range Modifier Schedule Name
  ASHRAETau,                              ! Solar Model Indicator
  ,                                       ! Beam Solar Day Schedule Name
  ,                                       ! Diffuse Solar Day Schedule Name
  0.407,                                  ! ASHRAE Taub {dimensionless}
  2.048;                                  ! ASHRAE Taud {dimensionless}

OS:ComponentData,
  {652e1f7c-3b58-46e1-a6d4-45f7d28b4123}, ! Handle
  Component Data 1,                       ! Name
  {e0d862fb-ad25-4fdf-a1ec-5d6fd2174b6f}, ! UUID
  {c45dd7e2-f570-45cd-a544-e53382e2e261}, ! Version UUID
  1366305611,                             ! Creation Timestamp
  1366305611,                             ! Version Timestamp
  {37194225-328c-4870-91b0-10a1ff24d853}; ! Name of Object 1

