
OS:Version,
  {98ef3623-07f9-40b5-929d-3747691e3082}, ! Handle
  0.9.3;                                  ! Version Identifier

OS:SizingPeriod:DesignDay,
  {eb5d600c-0efa-4721-a5a3-995120889a92}, ! Handle
  Rockford Greater Rockford Ap Ann Clg 2% Condns DP=>MDB, ! Name
  26.4,                                   ! Maximum Dry-Bulb Temperature {C}
  11,                                     ! Daily Dry-Bulb Temperature Range {deltaC}
  22.1,                                   ! Humidity Indicating Conditions at Maximum Dry-Bulb {BasedOnField A3}
  98675,                                  ! Barometric Pressure {Pa}
  5.3,                                    ! Wind Speed {m/s}
  210,                                    ! Wind Direction {deg}
  0,                                      ! Sky Clearness
  0,                                      ! Rain Indicator
  0,                                      ! Snow Indicator
  21,                                     ! Day of Month
  7,                                      ! Month
  SummerDesignDay,                        ! Day Type
  0,                                      ! Daylight Saving Time Indicator
  Dewpoint,                               ! Humidity Indicating Type
  ,                                       ! Humidity Indicating Day Schedule Name
  DefaultMultipliers,                     ! Dry-Bulb Temperature Range Modifier Type
  ,                                       ! Dry-Bulb Temperature Range Modifier Schedule Name
  ASHRAETau,                              ! Solar Model Indicator
  ,                                       ! Beam Solar Day Schedule Name
  ,                                       ! Diffuse Solar Day Schedule Name
  0.445,                                  ! ASHRAE Taub {dimensionless}
  2.082;                                  ! ASHRAE Taud {dimensionless}

OS:ComponentData,
  {cc60719a-8b0f-44ee-b3d2-e22af4eef58d}, ! Handle
  Component Data 1,                       ! Name
  {23184c4e-091b-4754-b3c5-6cd21be49e29}, ! UUID
  {4bc0ad23-99ce-4c90-97c6-13bd125f6a13}, ! Version UUID
  1366307393,                             ! Creation Timestamp
  1366307393,                             ! Version Timestamp
  {eb5d600c-0efa-4721-a5a3-995120889a92}; ! Name of Object 1

