
OS:Version,
  {f4c9fe4f-521d-4635-82a2-5d7d26aba7b5}, ! Handle
  0.9.3;                                  ! Version Identifier

OS:SizingPeriod:DesignDay,
  {a4df5c81-af3f-4019-8d50-755bf32f9b79}, ! Handle
  WEST_PALM Ann Clg .4% Condns DP=>MDB,   ! Name
  28.7,                                   ! Maximum Dry-Bulb Temperature {C}
  7.3,                                    ! Daily Dry-Bulb Temperature Range {deltaC}
  25.5,                                   ! Humidity Indicating Conditions at Maximum Dry-Bulb {BasedOnField A3}
  101253,                                 ! Barometric Pressure {Pa}
  5.2,                                    ! Wind Speed {m/s}
  130,                                    ! Wind Direction {deg}
  0,                                      ! Sky Clearness
  0,                                      ! Rain Indicator
  0,                                      ! Snow Indicator
  21,                                     ! Day of Month
  8,                                      ! Month
  SummerDesignDay,                        ! Day Type
  0,                                      ! Daylight Saving Time Indicator
  Dewpoint,                               ! Humidity Indicating Type
  ,                                       ! Humidity Indicating Day Schedule Name
  DefaultMultipliers,                     ! Dry-Bulb Temperature Range Modifier Type
  ,                                       ! Dry-Bulb Temperature Range Modifier Schedule Name
  ASHRAETau,                              ! Solar Model Indicator
  ,                                       ! Beam Solar Day Schedule Name
  ,                                       ! Diffuse Solar Day Schedule Name
  0.497,                                  ! ASHRAE Taub {dimensionless}
  2.018;                                  ! ASHRAE Taud {dimensionless}

OS:ComponentData,
  {737fc50e-1afd-49c4-9e52-a360ea8ca9a8}, ! Handle
  Component Data 1,                       ! Name
  {39440e56-927c-4b81-a13b-514cf4efb724}, ! UUID
  {e522d1b0-da35-4833-91ea-5cc573a6a540}, ! Version UUID
  1366306949,                             ! Creation Timestamp
  1366306949,                             ! Version Timestamp
  {a4df5c81-af3f-4019-8d50-755bf32f9b79}; ! Name of Object 1

