
OS:Version,
  {fb27de0e-6900-4555-b912-0da63ea94bb2}, ! Handle
  0.9.3;                                  ! Version Identifier

OS:SizingPeriod:DesignDay,
  {7144ca41-e7c4-42ac-a65e-9a68388f09f4}, ! Handle
  Monticello Awos Ann Hum_n 99.6% Condns DP=>MCDB, ! Name
  -16.8,                                  ! Maximum Dry-Bulb Temperature {C}
  0,                                      ! Daily Dry-Bulb Temperature Range {deltaC}
  -24,                                    ! Humidity Indicating Conditions at Maximum Dry-Bulb {BasedOnField A3}
  96288,                                  ! Barometric Pressure {Pa}
  3.7,                                    ! Wind Speed {m/s}
  280,                                    ! Wind Direction {deg}
  0,                                      ! Sky Clearness
  0,                                      ! Rain Indicator
  0,                                      ! Snow Indicator
  21,                                     ! Day of Month
  1,                                      ! Month
  WinterDesignDay,                        ! Day Type
  0,                                      ! Daylight Saving Time Indicator
  Dewpoint,                               ! Humidity Indicating Type
  ,                                       ! Humidity Indicating Day Schedule Name
  DefaultMultipliers,                     ! Dry-Bulb Temperature Range Modifier Type
  ,                                       ! Dry-Bulb Temperature Range Modifier Schedule Name
  ASHRAEClearSky;                         ! Solar Model Indicator

OS:ComponentData,
  {800ea2fe-862a-4bcb-9c35-920350b023d1}, ! Handle
  Component Data 1,                       ! Name
  {73875d6e-fb66-42b2-bff8-6634ff2e53b7}, ! UUID
  {66e5f55d-71aa-434d-a353-3e3b27543ed7}, ! Version UUID
  1366309658,                             ! Creation Timestamp
  1366309658,                             ! Version Timestamp
  {7144ca41-e7c4-42ac-a65e-9a68388f09f4}; ! Name of Object 1

