
OS:Version,
  {694ed51f-71bd-4d22-b4ce-0d76582943c9}, ! Handle
  0.9.3;                                  ! Version Identifier

OS:SizingPeriod:DesignDay,
  {54a72a4f-da29-4fec-9d53-f1d8bd27b8d7}, ! Handle
  Salt Lake City IntL Arpt  Isi Ann Clg .4% Condns Enth=>MDB, ! Name
  30.2,                                   ! Maximum Dry-Bulb Temperature {C}
  14.4,                                   ! Daily Dry-Bulb Temperature Range {deltaC}
  60600,                                  ! Humidity Indicating Conditions at Maximum Dry-Bulb {BasedOnField A3}
  86779,                                  ! Barometric Pressure {Pa}
  5.1,                                    ! Wind Speed {m/s}
  340,                                    ! Wind Direction {deg}
  0,                                      ! Sky Clearness
  0,                                      ! Rain Indicator
  0,                                      ! Snow Indicator
  21,                                     ! Day of Month
  7,                                      ! Month
  SummerDesignDay,                        ! Day Type
  0,                                      ! Daylight Saving Time Indicator
  Enthalpy,                               ! Humidity Indicating Type
  ,                                       ! Humidity Indicating Day Schedule Name
  DefaultMultipliers,                     ! Dry-Bulb Temperature Range Modifier Type
  ,                                       ! Dry-Bulb Temperature Range Modifier Schedule Name
  ASHRAETau,                              ! Solar Model Indicator
  ,                                       ! Beam Solar Day Schedule Name
  ,                                       ! Diffuse Solar Day Schedule Name
  0.44,                                   ! ASHRAE Taub {dimensionless}
  1.968;                                  ! ASHRAE Taud {dimensionless}

