
OS:Version,
  {7a5ef3cb-36b2-4f41-a765-cafb82aff048}, ! Handle
  0.9.3;                                  ! Version Identifier

OS:SizingPeriod:DesignDay,
  {780cd51d-7f78-447b-badf-b6868530459f}, ! Handle
  Valdosta Wb Airport Ann Clg 2% Condns WB=>MDB, ! Name
  30.7,                                   ! Maximum Dry-Bulb Temperature {C}
  10.8,                                   ! Daily Dry-Bulb Temperature Range {deltaC}
  25.8,                                   ! Humidity Indicating Conditions at Maximum Dry-Bulb {BasedOnField A3}
  100594,                                 ! Barometric Pressure {Pa}
  3.1,                                    ! Wind Speed {m/s}
  300,                                    ! Wind Direction {deg}
  0,                                      ! Sky Clearness
  0,                                      ! Rain Indicator
  0,                                      ! Snow Indicator
  21,                                     ! Day of Month
  7,                                      ! Month
  SummerDesignDay,                        ! Day Type
  0,                                      ! Daylight Saving Time Indicator
  Wetbulb,                                ! Humidity Indicating Type
  ,                                       ! Humidity Indicating Day Schedule Name
  DefaultMultipliers,                     ! Dry-Bulb Temperature Range Modifier Type
  ,                                       ! Dry-Bulb Temperature Range Modifier Schedule Name
  ASHRAETau,                              ! Solar Model Indicator
  ,                                       ! Beam Solar Day Schedule Name
  ,                                       ! Diffuse Solar Day Schedule Name
  0.546,                                  ! ASHRAE Taub {dimensionless}
  1.837;                                  ! ASHRAE Taud {dimensionless}

OS:ComponentData,
  {9960bf9a-6613-4b54-aeaa-4f4d83ea7b36}, ! Handle
  Component Data 1,                       ! Name
  {84f39bfe-a4cc-4de0-8ec7-bbb9997cb175}, ! UUID
  {0a4f712a-a5c5-4d4b-aa54-9d5894da278f}, ! Version UUID
  1366307063,                             ! Creation Timestamp
  1366307063,                             ! Version Timestamp
  {780cd51d-7f78-447b-badf-b6868530459f}; ! Name of Object 1

