
OS:Version,
  {44c9bda1-eb85-49c9-8dc6-790b13c02505}, ! Handle
  0.9.3;                                  ! Version Identifier

OS:SizingPeriod:DesignDay,
  {0da1996e-3bbc-49e3-ba58-555c29d96b42}, ! Handle
  Sacramento/Mather Fiel Ann Hum_n 99.6% Condns DP=>MCDB, ! Name
  10.8,                                   ! Maximum Dry-Bulb Temperature {C}
  0,                                      ! Daily Dry-Bulb Temperature Range {deltaC}
  -6.4,                                   ! Humidity Indicating Conditions at Maximum Dry-Bulb {BasedOnField A3}
  100977,                                 ! Barometric Pressure {Pa}
  0.9,                                    ! Wind Speed {m/s}
  320,                                    ! Wind Direction {deg}
  0,                                      ! Sky Clearness
  0,                                      ! Rain Indicator
  0,                                      ! Snow Indicator
  21,                                     ! Day of Month
  12,                                     ! Month
  WinterDesignDay,                        ! Day Type
  0,                                      ! Daylight Saving Time Indicator
  Dewpoint,                               ! Humidity Indicating Type
  ,                                       ! Humidity Indicating Day Schedule Name
  DefaultMultipliers,                     ! Dry-Bulb Temperature Range Modifier Type
  ,                                       ! Dry-Bulb Temperature Range Modifier Schedule Name
  ASHRAEClearSky;                         ! Solar Model Indicator

OS:ComponentData,
  {9f207f02-92c2-4354-8643-26fe7c07f7c8}, ! Handle
  Component Data 1,                       ! Name
  {9c50cdcc-20f6-446a-8ee0-67aa08bf574b}, ! UUID
  {f0e47a0a-4da4-4dcc-90e1-77842fcd1325}, ! Version UUID
  1366306560,                             ! Creation Timestamp
  1366306560,                             ! Version Timestamp
  {0da1996e-3bbc-49e3-ba58-555c29d96b42}; ! Name of Object 1

