
OS:Version,
  {86b7699e-1697-4ddc-9270-04a139f6f9f3}, ! Handle
  0.9.3;                                  ! Version Identifier

OS:SizingPeriod:DesignDay,
  {f410937a-e430-45bb-a40b-7d99454e0d70}, ! Handle
  Patuxent River Nas Ann Clg .4% Condns WB=>MDB, ! Name
  31.2,                                   ! Maximum Dry-Bulb Temperature {C}
  8.6,                                    ! Daily Dry-Bulb Temperature Range {deltaC}
  26.2,                                   ! Humidity Indicating Conditions at Maximum Dry-Bulb {BasedOnField A3}
  101157,                                 ! Barometric Pressure {Pa}
  3.9,                                    ! Wind Speed {m/s}
  250,                                    ! Wind Direction {deg}
  0,                                      ! Sky Clearness
  0,                                      ! Rain Indicator
  0,                                      ! Snow Indicator
  21,                                     ! Day of Month
  7,                                      ! Month
  SummerDesignDay,                        ! Day Type
  0,                                      ! Daylight Saving Time Indicator
  Wetbulb,                                ! Humidity Indicating Type
  ,                                       ! Humidity Indicating Day Schedule Name
  DefaultMultipliers,                     ! Dry-Bulb Temperature Range Modifier Type
  ,                                       ! Dry-Bulb Temperature Range Modifier Schedule Name
  ASHRAETau,                              ! Solar Model Indicator
  ,                                       ! Beam Solar Day Schedule Name
  ,                                       ! Diffuse Solar Day Schedule Name
  0.592,                                  ! ASHRAE Taub {dimensionless}
  1.683;                                  ! ASHRAE Taud {dimensionless}

OS:ComponentData,
  {ead22e68-0d7d-4a96-a6cc-5b918c7dfd29}, ! Handle
  Component Data 1,                       ! Name
  {ecb5dec8-f255-4981-b0a7-07e02fa84dd2}, ! UUID
  {0f69d2d4-f547-4a49-8d56-1b073868377b}, ! Version UUID
  1366307858,                             ! Creation Timestamp
  1366307858,                             ! Version Timestamp
  {f410937a-e430-45bb-a40b-7d99454e0d70}; ! Name of Object 1

