
OS:Version,
  {7b283057-8e22-4e58-8cb8-b333e007433e}, ! Handle
  0.9.3;                                  ! Version Identifier

OS:SizingPeriod:DesignDay,
  {6e060557-1e24-480c-9620-db6a51552b03}, ! Handle
  Tulsa Ann Clg 2% Condns Enth=>MDB,      ! Name
  32.3,                                   ! Maximum Dry-Bulb Temperature {C}
  10.5,                                   ! Daily Dry-Bulb Temperature Range {deltaC}
  77500,                                  ! Humidity Indicating Conditions at Maximum Dry-Bulb {BasedOnField A3}
  98875,                                  ! Barometric Pressure {Pa}
  4.9,                                    ! Wind Speed {m/s}
  190,                                    ! Wind Direction {deg}
  0,                                      ! Sky Clearness
  0,                                      ! Rain Indicator
  0,                                      ! Snow Indicator
  21,                                     ! Day of Month
  7,                                      ! Month
  SummerDesignDay,                        ! Day Type
  0,                                      ! Daylight Saving Time Indicator
  Enthalpy,                               ! Humidity Indicating Type
  ,                                       ! Humidity Indicating Day Schedule Name
  DefaultMultipliers,                     ! Dry-Bulb Temperature Range Modifier Type
  ,                                       ! Dry-Bulb Temperature Range Modifier Schedule Name
  ASHRAETau,                              ! Solar Model Indicator
  ,                                       ! Beam Solar Day Schedule Name
  ,                                       ! Diffuse Solar Day Schedule Name
  0.453,                                  ! ASHRAE Taub {dimensionless}
  2.105;                                  ! ASHRAE Taud {dimensionless}

OS:ComponentData,
  {40119a50-2c7d-46ba-ad0d-175ce0a3a1b2}, ! Handle
  Component Data 1,                       ! Name
  {6d65d47b-e324-42a0-ba46-645f5bb0e67f}, ! UUID
  {e3b03ea7-d149-41d1-b4e7-b17dfe435008}, ! Version UUID
  1366309955,                             ! Creation Timestamp
  1366309955,                             ! Version Timestamp
  {6e060557-1e24-480c-9620-db6a51552b03}; ! Name of Object 1

