
OS:Version,
  {09637f6d-d736-4a00-a984-fba3afb36388}, ! Handle
  0.9.3;                                  ! Version Identifier

OS:SizingPeriod:DesignDay,
  {0b95020b-5719-4339-8a3e-43bf1e88b5d6}, ! Handle
  Tulsa Ann Clg 2% Condns Enth=>MDB,      ! Name
  32.3,                                   ! Maximum Dry-Bulb Temperature {C}
  10.5,                                   ! Daily Dry-Bulb Temperature Range {deltaC}
  77500,                                  ! Humidity Indicating Conditions at Maximum Dry-Bulb {BasedOnField A3}
  98875,                                  ! Barometric Pressure {Pa}
  4.9,                                    ! Wind Speed {m/s}
  190,                                    ! Wind Direction {deg}
  0,                                      ! Sky Clearness
  0,                                      ! Rain Indicator
  0,                                      ! Snow Indicator
  21,                                     ! Day of Month
  7,                                      ! Month
  SummerDesignDay,                        ! Day Type
  0,                                      ! Daylight Saving Time Indicator
  Enthalpy,                               ! Humidity Indicating Type
  ,                                       ! Humidity Indicating Day Schedule Name
  DefaultMultipliers,                     ! Dry-Bulb Temperature Range Modifier Type
  ,                                       ! Dry-Bulb Temperature Range Modifier Schedule Name
  ASHRAETau,                              ! Solar Model Indicator
  ,                                       ! Beam Solar Day Schedule Name
  ,                                       ! Diffuse Solar Day Schedule Name
  0.453,                                  ! ASHRAE Taub {dimensionless}
  2.105;                                  ! ASHRAE Taud {dimensionless}

