
OS:Version,
  {ad29c7eb-a058-4d4b-b26f-7019298d1302}, ! Handle
  0.9.3;                                  ! Version Identifier

OS:SizingPeriod:DesignDay,
  {10bab4c2-6849-439b-8ad7-80ffc7f5c665}, ! Handle
  ROCHESTER Ann Hum_n 99% Condns DP=>MCDB, ! Name
  -13.5,                                  ! Maximum Dry-Bulb Temperature {C}
  0,                                      ! Daily Dry-Bulb Temperature Range {deltaC}
  -18.4,                                  ! Humidity Indicating Conditions at Maximum Dry-Bulb {BasedOnField A3}
  99311,                                  ! Barometric Pressure {Pa}
  3.9,                                    ! Wind Speed {m/s}
  240,                                    ! Wind Direction {deg}
  0,                                      ! Sky Clearness
  0,                                      ! Rain Indicator
  0,                                      ! Snow Indicator
  21,                                     ! Day of Month
  1,                                      ! Month
  WinterDesignDay,                        ! Day Type
  0,                                      ! Daylight Saving Time Indicator
  Dewpoint,                               ! Humidity Indicating Type
  ,                                       ! Humidity Indicating Day Schedule Name
  DefaultMultipliers,                     ! Dry-Bulb Temperature Range Modifier Type
  ,                                       ! Dry-Bulb Temperature Range Modifier Schedule Name
  ASHRAEClearSky;                         ! Solar Model Indicator

OS:ComponentData,
  {dc66a687-965d-403b-b2c5-26780087a95e}, ! Handle
  Component Data 1,                       ! Name
  {4d3d2997-ad4e-409e-9faf-7a54db093e16}, ! UUID
  {ee585b51-f9dc-4a8e-bf15-59d59c8f827f}, ! Version UUID
  1366309723,                             ! Creation Timestamp
  1366309723,                             ! Version Timestamp
  {10bab4c2-6849-439b-8ad7-80ffc7f5c665}; ! Name of Object 1

