
OS:Version,
  {66332be7-f064-4859-8971-77770cca878e}, ! Handle
  0.9.3;                                  ! Version Identifier

OS:SizingPeriod:DesignDay,
  {82c87556-c7e0-4e83-87a9-37f7ca980345}, ! Handle
  Muscle Shoals Regional Ap Ann Clg .4% Condns WB=>MDB, ! Name
  31.7,                                   ! Maximum Dry-Bulb Temperature {C}
  10.8,                                   ! Daily Dry-Bulb Temperature Range {deltaC}
  25.9,                                   ! Humidity Indicating Conditions at Maximum Dry-Bulb {BasedOnField A3}
  99358,                                  ! Barometric Pressure {Pa}
  3,                                      ! Wind Speed {m/s}
  270,                                    ! Wind Direction {deg}
  0,                                      ! Sky Clearness
  0,                                      ! Rain Indicator
  0,                                      ! Snow Indicator
  21,                                     ! Day of Month
  7,                                      ! Month
  SummerDesignDay,                        ! Day Type
  0,                                      ! Daylight Saving Time Indicator
  Wetbulb,                                ! Humidity Indicating Type
  ,                                       ! Humidity Indicating Day Schedule Name
  DefaultMultipliers,                     ! Dry-Bulb Temperature Range Modifier Type
  ,                                       ! Dry-Bulb Temperature Range Modifier Schedule Name
  ASHRAETau,                              ! Solar Model Indicator
  ,                                       ! Beam Solar Day Schedule Name
  ,                                       ! Diffuse Solar Day Schedule Name
  0.54,                                   ! ASHRAE Taub {dimensionless}
  1.819;                                  ! ASHRAE Taud {dimensionless}

OS:ComponentData,
  {18f36501-914a-429a-9338-a1c33d2a80b7}, ! Handle
  Component Data 1,                       ! Name
  {ca698ce6-c47b-40da-ad57-070409edb1de}, ! UUID
  {3ff04c33-2f9f-4a15-8334-63789d0aeb2c}, ! Version UUID
  1366305985,                             ! Creation Timestamp
  1366305985,                             ! Version Timestamp
  {82c87556-c7e0-4e83-87a9-37f7ca980345}; ! Name of Object 1

