
OS:Version,
  {52b24cdd-0e60-412f-a722-73932205a8ed}, ! Handle
  0.9.3;                                  ! Version Identifier

OS:SizingPeriod:DesignDay,
  {99b50988-65f3-4ce7-9486-9f5959cbac41}, ! Handle
  SAINT_CLOUD Ann Clg 1% Condns DB=>MWB,  ! Name
  30.3,                                   ! Maximum Dry-Bulb Temperature {C}
  12.3,                                   ! Daily Dry-Bulb Temperature Range {deltaC}
  21.8,                                   ! Humidity Indicating Conditions at Maximum Dry-Bulb {BasedOnField A3}
  97621,                                  ! Barometric Pressure {Pa}
  5.1,                                    ! Wind Speed {m/s}
  180,                                    ! Wind Direction {deg}
  0,                                      ! Sky Clearness
  0,                                      ! Rain Indicator
  0,                                      ! Snow Indicator
  21,                                     ! Day of Month
  7,                                      ! Month
  SummerDesignDay,                        ! Day Type
  0,                                      ! Daylight Saving Time Indicator
  Wetbulb,                                ! Humidity Indicating Type
  ,                                       ! Humidity Indicating Day Schedule Name
  DefaultMultipliers,                     ! Dry-Bulb Temperature Range Modifier Type
  ,                                       ! Dry-Bulb Temperature Range Modifier Schedule Name
  ASHRAETau,                              ! Solar Model Indicator
  ,                                       ! Beam Solar Day Schedule Name
  ,                                       ! Diffuse Solar Day Schedule Name
  0.405,                                  ! ASHRAE Taub {dimensionless}
  2.216;                                  ! ASHRAE Taud {dimensionless}

OS:ComponentData,
  {df283fdf-723d-4a58-bfe9-090714597fb5}, ! Handle
  Component Data 1,                       ! Name
  {fc2a215b-de80-434f-9011-42343992e964}, ! UUID
  {bd360eb2-072e-400c-bf8d-3752a418a78e}, ! Version UUID
  1366308410,                             ! Creation Timestamp
  1366308410,                             ! Version Timestamp
  {99b50988-65f3-4ce7-9486-9f5959cbac41}; ! Name of Object 1

