
OS:Version,
  {0c400c48-9a3c-4083-a50f-64bab22d5043}, ! Handle
  0.9.3;                                  ! Version Identifier

OS:SizingPeriod:DesignDay,
  {375de1ef-d4d4-41ac-a6a8-d81778e19d9b}, ! Handle
  PITTSBURGH Ann Clg 2% Condns DB=>MWB,   ! Name
  29,                                     ! Maximum Dry-Bulb Temperature {C}
  10.3,                                   ! Daily Dry-Bulb Temperature Range {deltaC}
  21,                                     ! Humidity Indicating Conditions at Maximum Dry-Bulb {BasedOnField A3}
  96924,                                  ! Barometric Pressure {Pa}
  4.5,                                    ! Wind Speed {m/s}
  220,                                    ! Wind Direction {deg}
  0,                                      ! Sky Clearness
  0,                                      ! Rain Indicator
  0,                                      ! Snow Indicator
  21,                                     ! Day of Month
  7,                                      ! Month
  SummerDesignDay,                        ! Day Type
  0,                                      ! Daylight Saving Time Indicator
  Wetbulb,                                ! Humidity Indicating Type
  ,                                       ! Humidity Indicating Day Schedule Name
  DefaultMultipliers,                     ! Dry-Bulb Temperature Range Modifier Type
  ,                                       ! Dry-Bulb Temperature Range Modifier Schedule Name
  ASHRAETau,                              ! Solar Model Indicator
  ,                                       ! Beam Solar Day Schedule Name
  ,                                       ! Diffuse Solar Day Schedule Name
  0.479,                                  ! ASHRAE Taub {dimensionless}
  1.937;                                  ! ASHRAE Taud {dimensionless}

OS:ComponentData,
  {b3fafd7f-3329-42f4-940b-512bd3f0c246}, ! Handle
  Component Data 1,                       ! Name
  {0c83dd14-978c-4d4f-9ad7-a6935798e57a}, ! UUID
  {cb3178a7-bcb8-4a8b-8dfa-9e2e908b37ed}, ! Version UUID
  1366310236,                             ! Creation Timestamp
  1366310236,                             ! Version Timestamp
  {375de1ef-d4d4-41ac-a6a8-d81778e19d9b}; ! Name of Object 1

