
OS:Version,
  {aa6856ba-6f87-4430-a5c4-d80d69ee482b}, ! Handle
  0.9.3;                                  ! Version Identifier

OS:SizingPeriod:DesignDay,
  {2bffea33-b789-47b2-8d5d-3f5d7d9a1a06}, ! Handle
  Randolph Afb Ann Clg 2% Condns DP=>MDB, ! Name
  26.9,                                   ! Maximum Dry-Bulb Temperature {C}
  12.5,                                   ! Daily Dry-Bulb Temperature Range {deltaC}
  23.5,                                   ! Humidity Indicating Conditions at Maximum Dry-Bulb {BasedOnField A3}
  98569,                                  ! Barometric Pressure {Pa}
  4.7,                                    ! Wind Speed {m/s}
  160,                                    ! Wind Direction {deg}
  0,                                      ! Sky Clearness
  0,                                      ! Rain Indicator
  0,                                      ! Snow Indicator
  21,                                     ! Day of Month
  8,                                      ! Month
  SummerDesignDay,                        ! Day Type
  0,                                      ! Daylight Saving Time Indicator
  Dewpoint,                               ! Humidity Indicating Type
  ,                                       ! Humidity Indicating Day Schedule Name
  DefaultMultipliers,                     ! Dry-Bulb Temperature Range Modifier Type
  ,                                       ! Dry-Bulb Temperature Range Modifier Schedule Name
  ASHRAETau,                              ! Solar Model Indicator
  ,                                       ! Beam Solar Day Schedule Name
  ,                                       ! Diffuse Solar Day Schedule Name
  0.45,                                   ! ASHRAE Taub {dimensionless}
  2.14;                                   ! ASHRAE Taud {dimensionless}

OS:ComponentData,
  {febc8f1a-b408-47ee-addf-203dbce425e8}, ! Handle
  Component Data 1,                       ! Name
  {df74172b-7e34-4306-87ea-4eb436fb5416}, ! UUID
  {6697e612-ecff-4083-a75b-7a63213effea}, ! Version UUID
  1366310861,                             ! Creation Timestamp
  1366310861,                             ! Version Timestamp
  {2bffea33-b789-47b2-8d5d-3f5d7d9a1a06}; ! Name of Object 1

