
OS:Version,
  {493b5f92-717b-4687-b17c-9d0d9ce305a3}, ! Handle
  0.9.3;                                  ! Version Identifier

OS:SizingPeriod:DesignDay,
  {7a8c6a17-11b9-44ca-913a-52b704108422}, ! Handle
  Manitowac Muni Awos Ann Clg .4% Condns DP=>MDB, ! Name
  26.8,                                   ! Maximum Dry-Bulb Temperature {C}
  9.4,                                    ! Daily Dry-Bulb Temperature Range {deltaC}
  22.3,                                   ! Humidity Indicating Conditions at Maximum Dry-Bulb {BasedOnField A3}
  98969,                                  ! Barometric Pressure {Pa}
  5,                                      ! Wind Speed {m/s}
  250,                                    ! Wind Direction {deg}
  0,                                      ! Sky Clearness
  0,                                      ! Rain Indicator
  0,                                      ! Snow Indicator
  21,                                     ! Day of Month
  7,                                      ! Month
  SummerDesignDay,                        ! Day Type
  0,                                      ! Daylight Saving Time Indicator
  Dewpoint,                               ! Humidity Indicating Type
  ,                                       ! Humidity Indicating Day Schedule Name
  DefaultMultipliers,                     ! Dry-Bulb Temperature Range Modifier Type
  ,                                       ! Dry-Bulb Temperature Range Modifier Schedule Name
  ASHRAETau,                              ! Solar Model Indicator
  ,                                       ! Beam Solar Day Schedule Name
  ,                                       ! Diffuse Solar Day Schedule Name
  0.438,                                  ! ASHRAE Taub {dimensionless}
  2.104;                                  ! ASHRAE Taud {dimensionless}

OS:ComponentData,
  {d227382e-6561-44e1-9176-a7f0e031c17b}, ! Handle
  Component Data 1,                       ! Name
  {42c6c93e-d4b3-4b67-a7eb-27b0c80b3c27}, ! UUID
  {219027ce-e0bd-4c46-9e98-69688d9ef88a}, ! Version UUID
  1366311538,                             ! Creation Timestamp
  1366311538,                             ! Version Timestamp
  {7a8c6a17-11b9-44ca-913a-52b704108422}; ! Name of Object 1

