
OS:Version,
  {c4fadd7a-dd2d-43a0-b73c-53eec655a3b1}, ! Handle
  0.9.3;                                  ! Version Identifier

OS:SizingPeriod:DesignDay,
  {43493f6c-25b6-43e3-aaa0-bf5a572d89f7}, ! Handle
  St Cloud Regional Arpt Ann Htg 99.6% Condns DB, ! Name
  -28.5,                                  ! Maximum Dry-Bulb Temperature {C}
  0,                                      ! Daily Dry-Bulb Temperature Range {deltaC}
  -28.5,                                  ! Humidity Indicating Conditions at Maximum Dry-Bulb {BasedOnField A3}
  97644,                                  ! Barometric Pressure {Pa}
  2.6,                                    ! Wind Speed {m/s}
  310,                                    ! Wind Direction {deg}
  0,                                      ! Sky Clearness
  0,                                      ! Rain Indicator
  0,                                      ! Snow Indicator
  21,                                     ! Day of Month
  1,                                      ! Month
  WinterDesignDay,                        ! Day Type
  0,                                      ! Daylight Saving Time Indicator
  Wetbulb,                                ! Humidity Indicating Type
  ,                                       ! Humidity Indicating Day Schedule Name
  DefaultMultipliers,                     ! Dry-Bulb Temperature Range Modifier Type
  ,                                       ! Dry-Bulb Temperature Range Modifier Schedule Name
  ASHRAEClearSky;                         ! Solar Model Indicator

OS:ComponentData,
  {c4b5af3e-8c9b-457c-941b-b08a922e016f}, ! Handle
  Component Data 1,                       ! Name
  {aa3454e2-e961-4182-b719-44728057acde}, ! UUID
  {8504c4b9-e3b7-4447-ad82-9a047bba2109}, ! Version UUID
  1366308427,                             ! Creation Timestamp
  1366308427,                             ! Version Timestamp
  {43493f6c-25b6-43e3-aaa0-bf5a572d89f7}; ! Name of Object 1

