
OS:Version,
  {572578ec-8eb9-4c4f-b225-b18207f275d8}, ! Handle
  0.9.3;                                  ! Version Identifier

OS:SizingPeriod:DesignDay,
  {a0969b84-9317-42ec-81e9-1605ccdc02b7}, ! Handle
  Macon Ann Hum_n 99.6% Condns DP=>MCDB,  ! Name
  0.7,                                    ! Maximum Dry-Bulb Temperature {C}
  0,                                      ! Daily Dry-Bulb Temperature Range {deltaC}
  -13.8,                                  ! Humidity Indicating Conditions at Maximum Dry-Bulb {BasedOnField A3}
  100011,                                 ! Barometric Pressure {Pa}
  2.5,                                    ! Wind Speed {m/s}
  300,                                    ! Wind Direction {deg}
  0,                                      ! Sky Clearness
  0,                                      ! Rain Indicator
  0,                                      ! Snow Indicator
  21,                                     ! Day of Month
  1,                                      ! Month
  WinterDesignDay,                        ! Day Type
  0,                                      ! Daylight Saving Time Indicator
  Dewpoint,                               ! Humidity Indicating Type
  ,                                       ! Humidity Indicating Day Schedule Name
  DefaultMultipliers,                     ! Dry-Bulb Temperature Range Modifier Type
  ,                                       ! Dry-Bulb Temperature Range Modifier Schedule Name
  ASHRAEClearSky;                         ! Solar Model Indicator

OS:ComponentData,
  {3112b653-acb9-47e5-9324-61c8fb1ffe2c}, ! Handle
  Component Data 1,                       ! Name
  {d343f9a8-2e0b-47de-ba09-a5aeeae368c6}, ! UUID
  {21416f32-1cb6-4fbc-8172-4f70bc3386f4}, ! Version UUID
  1366307016,                             ! Creation Timestamp
  1366307016,                             ! Version Timestamp
  {a0969b84-9317-42ec-81e9-1605ccdc02b7}; ! Name of Object 1

