
OS:Version,
  {2a475f2b-5cdc-495f-b1fc-8baad73ba1ab}, ! Handle
  0.9.3;                                  ! Version Identifier

OS:SizingPeriod:DesignDay,
  {061030ce-0b06-468b-a393-def93156e44e}, ! Handle
  Peoria Greater Peoria Ap Ann Clg 2% Condns DB=>MWB, ! Name
  30.8,                                   ! Maximum Dry-Bulb Temperature {C}
  10.6,                                   ! Daily Dry-Bulb Temperature Range {deltaC}
  23.2,                                   ! Humidity Indicating Conditions at Maximum Dry-Bulb {BasedOnField A3}
  98957,                                  ! Barometric Pressure {Pa}
  4.8,                                    ! Wind Speed {m/s}
  220,                                    ! Wind Direction {deg}
  0,                                      ! Sky Clearness
  0,                                      ! Rain Indicator
  0,                                      ! Snow Indicator
  21,                                     ! Day of Month
  7,                                      ! Month
  SummerDesignDay,                        ! Day Type
  0,                                      ! Daylight Saving Time Indicator
  Wetbulb,                                ! Humidity Indicating Type
  ,                                       ! Humidity Indicating Day Schedule Name
  DefaultMultipliers,                     ! Dry-Bulb Temperature Range Modifier Type
  ,                                       ! Dry-Bulb Temperature Range Modifier Schedule Name
  ASHRAETau,                              ! Solar Model Indicator
  ,                                       ! Beam Solar Day Schedule Name
  ,                                       ! Diffuse Solar Day Schedule Name
  0.455,                                  ! ASHRAE Taub {dimensionless}
  2.051;                                  ! ASHRAE Taud {dimensionless}

OS:ComponentData,
  {9b40c8f0-82ee-40c2-878a-c7b6aad7fb4d}, ! Handle
  Component Data 1,                       ! Name
  {3a540c4b-513f-4902-bcfd-b3ac0e271f44}, ! UUID
  {4f7e6552-4194-4cee-a7b5-d26483b2a277}, ! Version UUID
  1366307380,                             ! Creation Timestamp
  1366307380,                             ! Version Timestamp
  {061030ce-0b06-468b-a393-def93156e44e}; ! Name of Object 1

