
OS:Version,
  {362b53bd-5cca-4e67-88cc-68934b93a8bc}, ! Handle
  0.9.3;                                  ! Version Identifier

OS:SizingPeriod:DesignDay,
  {44aa757e-18c5-49b8-b238-d129ebca246b}, ! Handle
  Martinsville Ann Clg .4% Condns Enth=>MDB, ! Name
  32.2,                                   ! Maximum Dry-Bulb Temperature {C}
  12.1,                                   ! Daily Dry-Bulb Temperature Range {deltaC}
  81500,                                  ! Humidity Indicating Conditions at Maximum Dry-Bulb {BasedOnField A3}
  97924,                                  ! Barometric Pressure {Pa}
  1.8,                                    ! Wind Speed {m/s}
  210,                                    ! Wind Direction {deg}
  0,                                      ! Sky Clearness
  0,                                      ! Rain Indicator
  0,                                      ! Snow Indicator
  21,                                     ! Day of Month
  7,                                      ! Month
  SummerDesignDay,                        ! Day Type
  0,                                      ! Daylight Saving Time Indicator
  Enthalpy,                               ! Humidity Indicating Type
  ,                                       ! Humidity Indicating Day Schedule Name
  DefaultMultipliers,                     ! Dry-Bulb Temperature Range Modifier Type
  ,                                       ! Dry-Bulb Temperature Range Modifier Schedule Name
  ASHRAETau,                              ! Solar Model Indicator
  ,                                       ! Beam Solar Day Schedule Name
  ,                                       ! Diffuse Solar Day Schedule Name
  0.552,                                  ! ASHRAE Taub {dimensionless}
  1.765;                                  ! ASHRAE Taud {dimensionless}

OS:ComponentData,
  {a5a330a0-a447-4c83-81a8-6852c9a321f3}, ! Handle
  Component Data 1,                       ! Name
  {1195bd77-cf79-4a8e-9cef-81d457150337}, ! UUID
  {473d1124-ad40-4899-b69d-4319106a0ea4}, ! Version UUID
  1366311107,                             ! Creation Timestamp
  1366311107,                             ! Version Timestamp
  {44aa757e-18c5-49b8-b238-d129ebca246b}; ! Name of Object 1

