
OS:Version,
  {2bc36082-04bd-4c28-9348-9c35d2788f02}, ! Handle
  0.9.3;                                  ! Version Identifier

OS:SizingPeriod:DesignDay,
  {a6a54822-fd74-4341-b415-5002f1840096}, ! Handle
  South Bend Michiana Rgnl Ap Ann Clg .4% Condns Enth=>MDB, ! Name
  30.6,                                   ! Maximum Dry-Bulb Temperature {C}
  10.4,                                   ! Daily Dry-Bulb Temperature Range {deltaC}
  78300,                                  ! Humidity Indicating Conditions at Maximum Dry-Bulb {BasedOnField A3}
  98522,                                  ! Barometric Pressure {Pa}
  5.2,                                    ! Wind Speed {m/s}
  220,                                    ! Wind Direction {deg}
  0,                                      ! Sky Clearness
  0,                                      ! Rain Indicator
  0,                                      ! Snow Indicator
  21,                                     ! Day of Month
  7,                                      ! Month
  SummerDesignDay,                        ! Day Type
  0,                                      ! Daylight Saving Time Indicator
  Enthalpy,                               ! Humidity Indicating Type
  ,                                       ! Humidity Indicating Day Schedule Name
  DefaultMultipliers,                     ! Dry-Bulb Temperature Range Modifier Type
  ,                                       ! Dry-Bulb Temperature Range Modifier Schedule Name
  ASHRAETau,                              ! Solar Model Indicator
  ,                                       ! Beam Solar Day Schedule Name
  ,                                       ! Diffuse Solar Day Schedule Name
  0.433,                                  ! ASHRAE Taub {dimensionless}
  2.144;                                  ! ASHRAE Taud {dimensionless}

OS:ComponentData,
  {e2f1a37a-3e8e-4181-a000-4d9d60aa0b9a}, ! Handle
  Component Data 1,                       ! Name
  {f5e95f38-37a2-4406-bf58-3e87afc198b3}, ! UUID
  {08effe5f-e13a-45a8-9f79-714b9eb7a29a}, ! Version UUID
  1366307484,                             ! Creation Timestamp
  1366307484,                             ! Version Timestamp
  {a6a54822-fd74-4341-b415-5002f1840096}; ! Name of Object 1

