
OS:Version,
  {d7a72dd6-375f-4ec0-8a2a-58d5ad4d041f}, ! Handle
  0.9.3;                                  ! Version Identifier

OS:SizingPeriod:DesignDay,
  {61c0ff26-45e7-4ba9-9fb7-8d8841c1f85c}, ! Handle
  Sidney Municipal Ap Ann Clg .4% Condns Enth=>MDB, ! Name
  28.7,                                   ! Maximum Dry-Bulb Temperature {C}
  15.8,                                   ! Daily Dry-Bulb Temperature Range {deltaC}
  62700,                                  ! Humidity Indicating Conditions at Maximum Dry-Bulb {BasedOnField A3}
  86514,                                  ! Barometric Pressure {Pa}
  5.4,                                    ! Wind Speed {m/s}
  170,                                    ! Wind Direction {deg}
  0,                                      ! Sky Clearness
  0,                                      ! Rain Indicator
  0,                                      ! Snow Indicator
  21,                                     ! Day of Month
  7,                                      ! Month
  SummerDesignDay,                        ! Day Type
  0,                                      ! Daylight Saving Time Indicator
  Enthalpy,                               ! Humidity Indicating Type
  ,                                       ! Humidity Indicating Day Schedule Name
  DefaultMultipliers,                     ! Dry-Bulb Temperature Range Modifier Type
  ,                                       ! Dry-Bulb Temperature Range Modifier Schedule Name
  ASHRAETau,                              ! Solar Model Indicator
  ,                                       ! Beam Solar Day Schedule Name
  ,                                       ! Diffuse Solar Day Schedule Name
  0.417,                                  ! ASHRAE Taub {dimensionless}
  2.037;                                  ! ASHRAE Taud {dimensionless}

