
OS:Version,
  {a1723ac3-94d3-4aa0-9edf-36aa389e92b3}, ! Handle
  0.9.3;                                  ! Version Identifier

OS:SizingPeriod:DesignDay,
  {f1042552-c15d-4c3c-acc6-3b86044b27d5}, ! Handle
  Whittier Ann Htg Wind 99% Condns WS=>MCDB, ! Name
  -9.3,                                   ! Maximum Dry-Bulb Temperature {C}
  0,                                      ! Daily Dry-Bulb Temperature Range {deltaC}
  -9.3,                                   ! Humidity Indicating Conditions at Maximum Dry-Bulb {BasedOnField A3}
  101217,                                 ! Barometric Pressure {Pa}
  15.6,                                   ! Wind Speed {m/s}
  210,                                    ! Wind Direction {deg}
  0,                                      ! Sky Clearness
  0,                                      ! Rain Indicator
  0,                                      ! Snow Indicator
  21,                                     ! Day of Month
  1,                                      ! Month
  WinterDesignDay,                        ! Day Type
  0,                                      ! Daylight Saving Time Indicator
  Wetbulb,                                ! Humidity Indicating Type
  ,                                       ! Humidity Indicating Day Schedule Name
  DefaultMultipliers,                     ! Dry-Bulb Temperature Range Modifier Type
  ,                                       ! Dry-Bulb Temperature Range Modifier Schedule Name
  ASHRAEClearSky;                         ! Solar Model Indicator

OS:ComponentData,
  {2cb0938c-fe84-477d-80a9-bf18aa52a415}, ! Handle
  Component Data 1,                       ! Name
  {c27790d3-896f-48a7-9892-c9cc3f383f8d}, ! UUID
  {b3a6ab15-1c27-455d-8c33-af0acb7a5393}, ! Version UUID
  1366305611,                             ! Creation Timestamp
  1366305611,                             ! Version Timestamp
  {f1042552-c15d-4c3c-acc6-3b86044b27d5}; ! Name of Object 1

