
OS:Version,
  {0bbb25df-8231-4ff5-b6b4-bd9e8397cba5}, ! Handle
  0.9.3;                                  ! Version Identifier

OS:SizingPeriod:DesignDay,
  {3d3d76ca-9aeb-45fe-b048-e5e5d7a31e8f}, ! Handle
  MILWAUKEE Ann Clg 1% Condns Enth=>MDB,  ! Name
  28.5,                                   ! Maximum Dry-Bulb Temperature {C}
  8.7,                                    ! Daily Dry-Bulb Temperature Range {deltaC}
  72600,                                  ! Humidity Indicating Conditions at Maximum Dry-Bulb {BasedOnField A3}
  98816,                                  ! Barometric Pressure {Pa}
  6.4,                                    ! Wind Speed {m/s}
  240,                                    ! Wind Direction {deg}
  0,                                      ! Sky Clearness
  0,                                      ! Rain Indicator
  0,                                      ! Snow Indicator
  21,                                     ! Day of Month
  7,                                      ! Month
  SummerDesignDay,                        ! Day Type
  0,                                      ! Daylight Saving Time Indicator
  Enthalpy,                               ! Humidity Indicating Type
  ,                                       ! Humidity Indicating Day Schedule Name
  DefaultMultipliers,                     ! Dry-Bulb Temperature Range Modifier Type
  ,                                       ! Dry-Bulb Temperature Range Modifier Schedule Name
  ASHRAETau,                              ! Solar Model Indicator
  ,                                       ! Beam Solar Day Schedule Name
  ,                                       ! Diffuse Solar Day Schedule Name
  0.452,                                  ! ASHRAE Taub {dimensionless}
  2.061;                                  ! ASHRAE Taud {dimensionless}

OS:ComponentData,
  {d2395c41-26b2-4867-8715-f57818244c8e}, ! Handle
  Component Data 1,                       ! Name
  {cb726555-82c0-444a-b773-bb0ff5033426}, ! UUID
  {9da0e95e-2795-4b2b-893f-3f4874683086}, ! Version UUID
  1366311564,                             ! Creation Timestamp
  1366311564,                             ! Version Timestamp
  {3d3d76ca-9aeb-45fe-b048-e5e5d7a31e8f}; ! Name of Object 1

