
OS:Version,
  {ef7cd504-f5b6-4b94-a699-d71107780ae0}, ! Handle
  0.9.3;                                  ! Version Identifier

OS:SizingPeriod:DesignDay,
  {bf25ac92-7479-44ce-abe8-d439fe4c0d22}, ! Handle
  Molokai  Amos Ann Hum_n 99% Condns DP=>MCDB, ! Name
  21.8,                                   ! Maximum Dry-Bulb Temperature {C}
  0,                                      ! Daily Dry-Bulb Temperature Range {deltaC}
  8.5,                                    ! Humidity Indicating Conditions at Maximum Dry-Bulb {BasedOnField A3}
  99690,                                  ! Barometric Pressure {Pa}
  1.5,                                    ! Wind Speed {m/s}
  70,                                     ! Wind Direction {deg}
  0,                                      ! Sky Clearness
  0,                                      ! Rain Indicator
  0,                                      ! Snow Indicator
  21,                                     ! Day of Month
  2,                                      ! Month
  WinterDesignDay,                        ! Day Type
  0,                                      ! Daylight Saving Time Indicator
  Dewpoint,                               ! Humidity Indicating Type
  ,                                       ! Humidity Indicating Day Schedule Name
  DefaultMultipliers,                     ! Dry-Bulb Temperature Range Modifier Type
  ,                                       ! Dry-Bulb Temperature Range Modifier Schedule Name
  ASHRAEClearSky;                         ! Solar Model Indicator

OS:ComponentData,
  {3e8ba381-1f6b-4b14-aafc-3027c3f6912e}, ! Handle
  Component Data 1,                       ! Name
  {d2d1d9e7-8287-4f33-8c0d-17fa884ac5ca}, ! UUID
  {bce427df-e3b6-4e9b-96ae-631638ee1773}, ! Version UUID
  1366307127,                             ! Creation Timestamp
  1366307127,                             ! Version Timestamp
  {bf25ac92-7479-44ce-abe8-d439fe4c0d22}; ! Name of Object 1

