
OS:Version,
  {e637ecbc-cc8c-4da4-b6c3-7f56691f8537}, ! Handle
  0.9.3;                                  ! Version Identifier

OS:SizingPeriod:DesignDay,
  {380c72ee-5337-41e8-9da3-40f1a2523445}, ! Handle
  Travis Field Afb Ann Clg 2% Condns DP=>MDB, ! Name
  22.5,                                   ! Maximum Dry-Bulb Temperature {C}
  16.4,                                   ! Daily Dry-Bulb Temperature Range {deltaC}
  14.9,                                   ! Humidity Indicating Conditions at Maximum Dry-Bulb {BasedOnField A3}
  101109,                                 ! Barometric Pressure {Pa}
  4.2,                                    ! Wind Speed {m/s}
  240,                                    ! Wind Direction {deg}
  0,                                      ! Sky Clearness
  0,                                      ! Rain Indicator
  0,                                      ! Snow Indicator
  21,                                     ! Day of Month
  7,                                      ! Month
  SummerDesignDay,                        ! Day Type
  0,                                      ! Daylight Saving Time Indicator
  Dewpoint,                               ! Humidity Indicating Type
  ,                                       ! Humidity Indicating Day Schedule Name
  DefaultMultipliers,                     ! Dry-Bulb Temperature Range Modifier Type
  ,                                       ! Dry-Bulb Temperature Range Modifier Schedule Name
  ASHRAETau,                              ! Solar Model Indicator
  ,                                       ! Beam Solar Day Schedule Name
  ,                                       ! Diffuse Solar Day Schedule Name
  0.374,                                  ! ASHRAE Taub {dimensionless}
  2.389;                                  ! ASHRAE Taud {dimensionless}

