
OS:Version,
  {109c846e-332d-4f6a-a875-643cdbd11620}, ! Handle
  0.9.3;                                  ! Version Identifier

OS:SizingPeriod:DesignDay,
  {be1d52e3-c36a-4663-aa0a-4aa263f80f07}, ! Handle
  Saginaw Tri City Intl Ap Ann Clg 1% Condns Enth=>MDB, ! Name
  28.4,                                   ! Maximum Dry-Bulb Temperature {C}
  11.5,                                   ! Daily Dry-Bulb Temperature Range {deltaC}
  71300,                                  ! Humidity Indicating Conditions at Maximum Dry-Bulb {BasedOnField A3}
  98934,                                  ! Barometric Pressure {Pa}
  5.8,                                    ! Wind Speed {m/s}
  240,                                    ! Wind Direction {deg}
  0,                                      ! Sky Clearness
  0,                                      ! Rain Indicator
  0,                                      ! Snow Indicator
  21,                                     ! Day of Month
  7,                                      ! Month
  SummerDesignDay,                        ! Day Type
  0,                                      ! Daylight Saving Time Indicator
  Enthalpy,                               ! Humidity Indicating Type
  ,                                       ! Humidity Indicating Day Schedule Name
  DefaultMultipliers,                     ! Dry-Bulb Temperature Range Modifier Type
  ,                                       ! Dry-Bulb Temperature Range Modifier Schedule Name
  ASHRAETau,                              ! Solar Model Indicator
  ,                                       ! Beam Solar Day Schedule Name
  ,                                       ! Diffuse Solar Day Schedule Name
  0.435,                                  ! ASHRAE Taub {dimensionless}
  2.102;                                  ! ASHRAE Taud {dimensionless}

OS:ComponentData,
  {19fe49b2-373d-4ad8-a5ba-ec9347ff9d87}, ! Handle
  Component Data 1,                       ! Name
  {124acaad-5b20-4c00-8e39-5d43d5847298}, ! UUID
  {324b6521-15d4-499f-893d-7241767b8045}, ! Version UUID
  1366308098,                             ! Creation Timestamp
  1366308098,                             ! Version Timestamp
  {be1d52e3-c36a-4663-aa0a-4aa263f80f07}; ! Name of Object 1

