
OS:Version,
  {96973036-ccba-4806-b8b8-e76df974e2c3}, ! Handle
  0.9.3;                                  ! Version Identifier

OS:SizingPeriod:DesignDay,
  {07490efa-5c10-491d-a749-8976206bafe2}, ! Handle
  Tonopah Ann Hum_n 99% Condns DP=>MCDB,  ! Name
  -0.6,                                   ! Maximum Dry-Bulb Temperature {C}
  0,                                      ! Daily Dry-Bulb Temperature Range {deltaC}
  -19.8,                                  ! Humidity Indicating Conditions at Maximum Dry-Bulb {BasedOnField A3}
  82970,                                  ! Barometric Pressure {Pa}
  3.9,                                    ! Wind Speed {m/s}
  350,                                    ! Wind Direction {deg}
  0,                                      ! Sky Clearness
  0,                                      ! Rain Indicator
  0,                                      ! Snow Indicator
  21,                                     ! Day of Month
  12,                                     ! Month
  WinterDesignDay,                        ! Day Type
  0,                                      ! Daylight Saving Time Indicator
  Dewpoint,                               ! Humidity Indicating Type
  ,                                       ! Humidity Indicating Day Schedule Name
  DefaultMultipliers,                     ! Dry-Bulb Temperature Range Modifier Type
  ,                                       ! Dry-Bulb Temperature Range Modifier Schedule Name
  ASHRAEClearSky;                         ! Solar Model Indicator

OS:ComponentData,
  {a1768e40-4545-4198-bdc5-726e3aa03aea}, ! Handle
  Component Data 1,                       ! Name
  {275a9a2e-dbbf-491e-9e20-61c43515678f}, ! UUID
  {63a86202-db8b-472d-a0b1-eb93cffeaaf2}, ! Version UUID
  1366309550,                             ! Creation Timestamp
  1366309550,                             ! Version Timestamp
  {07490efa-5c10-491d-a749-8976206bafe2}; ! Name of Object 1

