
OS:Version,
  {a1ad292e-a7d2-4a55-9b41-8bad711adabc}, ! Handle
  0.9.3;                                  ! Version Identifier

OS:SizingPeriod:DesignDay,
  {3d5aef41-6bfe-4d4c-9745-6394139575f9}, ! Handle
  SAN_FRANCISCO Ann Htg Wind 99% Condns WS=>MCDB, ! Name
  12.2,                                   ! Maximum Dry-Bulb Temperature {C}
  0,                                      ! Daily Dry-Bulb Temperature Range {deltaC}
  12.2,                                   ! Humidity Indicating Conditions at Maximum Dry-Bulb {BasedOnField A3}
  101265,                                 ! Barometric Pressure {Pa}
  11.6,                                   ! Wind Speed {m/s}
  150,                                    ! Wind Direction {deg}
  0,                                      ! Sky Clearness
  0,                                      ! Rain Indicator
  0,                                      ! Snow Indicator
  21,                                     ! Day of Month
  1,                                      ! Month
  WinterDesignDay,                        ! Day Type
  0,                                      ! Daylight Saving Time Indicator
  Wetbulb,                                ! Humidity Indicating Type
  ,                                       ! Humidity Indicating Day Schedule Name
  DefaultMultipliers,                     ! Dry-Bulb Temperature Range Modifier Type
  ,                                       ! Dry-Bulb Temperature Range Modifier Schedule Name
  ASHRAEClearSky;                         ! Solar Model Indicator

OS:ComponentData,
  {1b930975-5c9e-47c9-8014-0b0227ae5336}, ! Handle
  Component Data 1,                       ! Name
  {811507f8-a4e1-4bf6-8592-a7751f2e236b}, ! UUID
  {b0ad6e57-3287-4ff3-a449-67f99fbbb2a1}, ! Version UUID
  1366306589,                             ! Creation Timestamp
  1366306589,                             ! Version Timestamp
  {3d5aef41-6bfe-4d4c-9745-6394139575f9}; ! Name of Object 1

