
OS:Version,
  {c9bfb9e5-60a6-4c6f-9e20-a1c54ebcb867}, ! Handle
  0.9.3;                                  ! Version Identifier

OS:SizingPeriod:DesignDay,
  {224452ee-97ba-4d91-bd7c-690b856c7f9c}, ! Handle
  SAULT_STE. Ann Htg 99.6% Condns DB,     ! Name
  -24,                                    ! Maximum Dry-Bulb Temperature {C}
  0,                                      ! Daily Dry-Bulb Temperature Range {deltaC}
  -24,                                    ! Humidity Indicating Conditions at Maximum Dry-Bulb {BasedOnField A3}
  98698,                                  ! Barometric Pressure {Pa}
  2.4,                                    ! Wind Speed {m/s}
  90,                                     ! Wind Direction {deg}
  0,                                      ! Sky Clearness
  0,                                      ! Rain Indicator
  0,                                      ! Snow Indicator
  21,                                     ! Day of Month
  1,                                      ! Month
  WinterDesignDay,                        ! Day Type
  0,                                      ! Daylight Saving Time Indicator
  Wetbulb,                                ! Humidity Indicating Type
  ,                                       ! Humidity Indicating Day Schedule Name
  DefaultMultipliers,                     ! Dry-Bulb Temperature Range Modifier Type
  ,                                       ! Dry-Bulb Temperature Range Modifier Schedule Name
  ASHRAEClearSky;                         ! Solar Model Indicator

OS:ComponentData,
  {d5240f4d-e513-4ea8-abba-af8bc0a6ab0f}, ! Handle
  Component Data 1,                       ! Name
  {92def18f-35f4-4fd6-81a3-3fd90888959d}, ! UUID
  {0472da57-b96e-41ed-8fd8-a1ec58aa4de1}, ! Version UUID
  1366308108,                             ! Creation Timestamp
  1366308108,                             ! Version Timestamp
  {224452ee-97ba-4d91-bd7c-690b856c7f9c}; ! Name of Object 1

