
OS:Version,
  {b544985f-4b1c-409c-b405-ffcc6c2bb55c}, ! Handle
  0.9.3;                                  ! Version Identifier

OS:SizingPeriod:DesignDay,
  {ad4f319a-1726-4067-855c-7a4edcb2cf37}, ! Handle
  Waterloo Municipal Ap Ann Clg .4% Condns Enth=>MDB, ! Name
  31,                                     ! Maximum Dry-Bulb Temperature {C}
  11.2,                                   ! Daily Dry-Bulb Temperature Range {deltaC}
  81500,                                  ! Humidity Indicating Conditions at Maximum Dry-Bulb {BasedOnField A3}
  98193,                                  ! Barometric Pressure {Pa}
  5.5,                                    ! Wind Speed {m/s}
  190,                                    ! Wind Direction {deg}
  0,                                      ! Sky Clearness
  0,                                      ! Rain Indicator
  0,                                      ! Snow Indicator
  21,                                     ! Day of Month
  7,                                      ! Month
  SummerDesignDay,                        ! Day Type
  0,                                      ! Daylight Saving Time Indicator
  Enthalpy,                               ! Humidity Indicating Type
  ,                                       ! Humidity Indicating Day Schedule Name
  DefaultMultipliers,                     ! Dry-Bulb Temperature Range Modifier Type
  ,                                       ! Dry-Bulb Temperature Range Modifier Schedule Name
  ASHRAETau,                              ! Solar Model Indicator
  ,                                       ! Beam Solar Day Schedule Name
  ,                                       ! Diffuse Solar Day Schedule Name
  0.427,                                  ! ASHRAE Taub {dimensionless}
  2.147;                                  ! ASHRAE Taud {dimensionless}

OS:ComponentData,
  {79663d72-ab36-40bf-b1d9-3dbb9370a41b}, ! Handle
  Component Data 1,                       ! Name
  {00fbeea4-b29c-405c-9c92-e7e486d421b5}, ! UUID
  {8400cb52-b595-4653-a477-45a7fb61652e}, ! Version UUID
  1366307256,                             ! Creation Timestamp
  1366307256,                             ! Version Timestamp
  {ad4f319a-1726-4067-855c-7a4edcb2cf37}; ! Name of Object 1

