
OS:Version,
  {56a312b3-3815-4f7d-968d-2cf4c99e3d81}, ! Handle
  0.9.3;                                  ! Version Identifier

OS:SizingPeriod:DesignDay,
  {8a18c0ff-f886-4277-a5c9-7436eee69c74}, ! Handle
  Quillayute State Airport Ann Htg 99% Condns DB, ! Name
  -2.7,                                   ! Maximum Dry-Bulb Temperature {C}
  0,                                      ! Daily Dry-Bulb Temperature Range {deltaC}
  -2.7,                                   ! Humidity Indicating Conditions at Maximum Dry-Bulb {BasedOnField A3}
  100666,                                 ! Barometric Pressure {Pa}
  2.3,                                    ! Wind Speed {m/s}
  50,                                     ! Wind Direction {deg}
  0,                                      ! Sky Clearness
  0,                                      ! Rain Indicator
  0,                                      ! Snow Indicator
  21,                                     ! Day of Month
  12,                                     ! Month
  WinterDesignDay,                        ! Day Type
  0,                                      ! Daylight Saving Time Indicator
  Wetbulb,                                ! Humidity Indicating Type
  ,                                       ! Humidity Indicating Day Schedule Name
  DefaultMultipliers,                     ! Dry-Bulb Temperature Range Modifier Type
  ,                                       ! Dry-Bulb Temperature Range Modifier Schedule Name
  ASHRAEClearSky;                         ! Solar Model Indicator

OS:ComponentData,
  {de017d04-4fac-489e-a09b-96a3fa8b7979}, ! Handle
  Component Data 1,                       ! Name
  {a08c58b5-ca9f-4a1f-9543-b4b6eb98c14a}, ! UUID
  {5adfbb43-648a-4ccf-bc7f-098ead811145}, ! Version UUID
  1366311340,                             ! Creation Timestamp
  1366311340,                             ! Version Timestamp
  {8a18c0ff-f886-4277-a5c9-7436eee69c74}; ! Name of Object 1

