
OS:Version,
  {518b10b1-9101-4f3b-9d16-9927fe86d976}, ! Handle
  0.9.3;                                  ! Version Identifier

OS:SizingPeriod:DesignDay,
  {5ffe939a-2013-4a39-afaa-47b8bcb90ae3}, ! Handle
  Roanoke Ann Clg 1% Condns DB=>MWB,      ! Name
  32.1,                                   ! Maximum Dry-Bulb Temperature {C}
  10.6,                                   ! Daily Dry-Bulb Temperature Range {deltaC}
  22.4,                                   ! Humidity Indicating Conditions at Maximum Dry-Bulb {BasedOnField A3}
  97098,                                  ! Barometric Pressure {Pa}
  4,                                      ! Wind Speed {m/s}
  280,                                    ! Wind Direction {deg}
  0,                                      ! Sky Clearness
  0,                                      ! Rain Indicator
  0,                                      ! Snow Indicator
  21,                                     ! Day of Month
  7,                                      ! Month
  SummerDesignDay,                        ! Day Type
  0,                                      ! Daylight Saving Time Indicator
  Wetbulb,                                ! Humidity Indicating Type
  ,                                       ! Humidity Indicating Day Schedule Name
  DefaultMultipliers,                     ! Dry-Bulb Temperature Range Modifier Type
  ,                                       ! Dry-Bulb Temperature Range Modifier Schedule Name
  ASHRAETau,                              ! Solar Model Indicator
  ,                                       ! Beam Solar Day Schedule Name
  ,                                       ! Diffuse Solar Day Schedule Name
  0.529,                                  ! ASHRAE Taub {dimensionless}
  1.818;                                  ! ASHRAE Taud {dimensionless}

OS:ComponentData,
  {3065ee49-b743-433c-a720-c95965db8e9f}, ! Handle
  Component Data 1,                       ! Name
  {4cb8bf84-2526-4bbd-9a62-0be4b559d97d}, ! UUID
  {1b2d53bc-4212-4964-b491-182f1fe244ae}, ! Version UUID
  1366311185,                             ! Creation Timestamp
  1366311185,                             ! Version Timestamp
  {5ffe939a-2013-4a39-afaa-47b8bcb90ae3}; ! Name of Object 1

