
OS:Version,
  {3236cb79-4b4e-4fd4-9755-c5e07bc6f71e}, ! Handle
  0.9.3;                                  ! Version Identifier

OS:SizingPeriod:DesignDay,
  {95c30ba0-b130-44b9-9eef-950b210a2c79}, ! Handle
  NORTH_PLATTE Ann Htg 99% Condns DB,     ! Name
  -18.2,                                  ! Maximum Dry-Bulb Temperature {C}
  0,                                      ! Daily Dry-Bulb Temperature Range {deltaC}
  -18.2,                                  ! Humidity Indicating Conditions at Maximum Dry-Bulb {BasedOnField A3}
  91533,                                  ! Barometric Pressure {Pa}
  3.6,                                    ! Wind Speed {m/s}
  320,                                    ! Wind Direction {deg}
  0,                                      ! Sky Clearness
  0,                                      ! Rain Indicator
  0,                                      ! Snow Indicator
  21,                                     ! Day of Month
  1,                                      ! Month
  WinterDesignDay,                        ! Day Type
  0,                                      ! Daylight Saving Time Indicator
  Wetbulb,                                ! Humidity Indicating Type
  ,                                       ! Humidity Indicating Day Schedule Name
  DefaultMultipliers,                     ! Dry-Bulb Temperature Range Modifier Type
  ,                                       ! Dry-Bulb Temperature Range Modifier Schedule Name
  ASHRAEClearSky;                         ! Solar Model Indicator

OS:ComponentData,
  {9b553831-dc78-40d2-afcb-c111cf4701db}, ! Handle
  Component Data 1,                       ! Name
  {bbad51b0-9146-4e23-9cfe-d1a77154e7ee}, ! UUID
  {195546a3-14ac-4611-abc4-d0ae8a4b9283}, ! Version UUID
  1366309156,                             ! Creation Timestamp
  1366309156,                             ! Version Timestamp
  {95c30ba0-b130-44b9-9eef-950b210a2c79}; ! Name of Object 1

