
OS:Version,
  {9e78fb7a-0d74-4dce-96f1-b92f265a68f4}, ! Handle
  0.9.3;                                  ! Version Identifier

OS:SizingPeriod:DesignDay,
  {25bccf91-913d-4f29-97ec-d181c9ec29a4}, ! Handle
  Scottsbluff W B Heilig Field Ann Clg 1% Condns Enth=>MDB, ! Name
  29.2,                                   ! Maximum Dry-Bulb Temperature {C}
  16.6,                                   ! Daily Dry-Bulb Temperature Range {deltaC}
  62900,                                  ! Humidity Indicating Conditions at Maximum Dry-Bulb {BasedOnField A3}
  87694,                                  ! Barometric Pressure {Pa}
  4.7,                                    ! Wind Speed {m/s}
  300,                                    ! Wind Direction {deg}
  0,                                      ! Sky Clearness
  0,                                      ! Rain Indicator
  0,                                      ! Snow Indicator
  21,                                     ! Day of Month
  7,                                      ! Month
  SummerDesignDay,                        ! Day Type
  0,                                      ! Daylight Saving Time Indicator
  Enthalpy,                               ! Humidity Indicating Type
  ,                                       ! Humidity Indicating Day Schedule Name
  DefaultMultipliers,                     ! Dry-Bulb Temperature Range Modifier Type
  ,                                       ! Dry-Bulb Temperature Range Modifier Schedule Name
  ASHRAETau,                              ! Solar Model Indicator
  ,                                       ! Beam Solar Day Schedule Name
  ,                                       ! Diffuse Solar Day Schedule Name
  0.434,                                  ! ASHRAE Taub {dimensionless}
  1.982;                                  ! ASHRAE Taud {dimensionless}

OS:ComponentData,
  {aeac8144-86e3-448b-80b3-f853b25e57a0}, ! Handle
  Component Data 1,                       ! Name
  {5a70628c-3bae-4a9c-a8fe-878a4c8838ef}, ! UUID
  {2d3ddf49-3486-4d13-860d-5cc4438e9983}, ! Version UUID
  1366309196,                             ! Creation Timestamp
  1366309196,                             ! Version Timestamp
  {25bccf91-913d-4f29-97ec-d181c9ec29a4}; ! Name of Object 1

