
OS:Version,
  {64aaa391-8216-478d-ba71-d8fb482c9a6e}, ! Handle
  0.9.3;                                  ! Version Identifier

OS:SizingPeriod:DesignDay,
  {4d1197df-bf3b-4a6b-aec2-520853393252}, ! Handle
  Wichita Falls Municipal Arpt Ann Htg Wind 99% Condns WS=>MCDB, ! Name
  7.6,                                    ! Maximum Dry-Bulb Temperature {C}
  0,                                      ! Daily Dry-Bulb Temperature Range {deltaC}
  7.6,                                    ! Humidity Indicating Conditions at Maximum Dry-Bulb {BasedOnField A3}
  97609,                                  ! Barometric Pressure {Pa}
  12.3,                                   ! Wind Speed {m/s}
  0,                                      ! Wind Direction {deg}
  0,                                      ! Sky Clearness
  0,                                      ! Rain Indicator
  0,                                      ! Snow Indicator
  21,                                     ! Day of Month
  1,                                      ! Month
  WinterDesignDay,                        ! Day Type
  0,                                      ! Daylight Saving Time Indicator
  Wetbulb,                                ! Humidity Indicating Type
  ,                                       ! Humidity Indicating Day Schedule Name
  DefaultMultipliers,                     ! Dry-Bulb Temperature Range Modifier Type
  ,                                       ! Dry-Bulb Temperature Range Modifier Schedule Name
  ASHRAEClearSky;                         ! Solar Model Indicator

OS:ComponentData,
  {7d4a8916-62e7-488a-b876-a8671b2e1347}, ! Handle
  Component Data 1,                       ! Name
  {44cad38a-21a4-4aea-ae0d-ea738302d319}, ! UUID
  {f4db57a0-262d-4108-9708-f084f632bf5a}, ! Version UUID
  1366310935,                             ! Creation Timestamp
  1366310935,                             ! Version Timestamp
  {4d1197df-bf3b-4a6b-aec2-520853393252}; ! Name of Object 1

