
OS:Version,
  {439c1d1f-7475-4ae9-b9ea-dfa3db85751d}, ! Handle
  0.9.3;                                  ! Version Identifier

OS:SizingPeriod:DesignDay,
  {38b271d5-7d51-4638-928c-5b20ff8bca19}, ! Handle
  Truth or Consequences Ann Clg .4% Condns Enth=>MDB, ! Name
  29.3,                                   ! Maximum Dry-Bulb Temperature {C}
  13.9,                                   ! Daily Dry-Bulb Temperature Range {deltaC}
  61700,                                  ! Humidity Indicating Conditions at Maximum Dry-Bulb {BasedOnField A3}
  84784,                                  ! Barometric Pressure {Pa}
  4.6,                                    ! Wind Speed {m/s}
  170,                                    ! Wind Direction {deg}
  0,                                      ! Sky Clearness
  0,                                      ! Rain Indicator
  0,                                      ! Snow Indicator
  21,                                     ! Day of Month
  7,                                      ! Month
  SummerDesignDay,                        ! Day Type
  0,                                      ! Daylight Saving Time Indicator
  Enthalpy,                               ! Humidity Indicating Type
  ,                                       ! Humidity Indicating Day Schedule Name
  DefaultMultipliers,                     ! Dry-Bulb Temperature Range Modifier Type
  ,                                       ! Dry-Bulb Temperature Range Modifier Schedule Name
  ASHRAETau,                              ! Solar Model Indicator
  ,                                       ! Beam Solar Day Schedule Name
  ,                                       ! Diffuse Solar Day Schedule Name
  0.543,                                  ! ASHRAE Taub {dimensionless}
  1.689;                                  ! ASHRAE Taud {dimensionless}

OS:ComponentData,
  {3db859c7-0de9-4e41-9bea-9970b2151b31}, ! Handle
  Component Data 1,                       ! Name
  {0ad085ca-57ce-49ac-ac16-c58f84e7be32}, ! UUID
  {38a32603-cf78-4836-ae3b-603bf73edc55}, ! Version UUID
  1366309445,                             ! Creation Timestamp
  1366309445,                             ! Version Timestamp
  {38b271d5-7d51-4638-928c-5b20ff8bca19}; ! Name of Object 1

