
OS:Version,
  {dba9204c-82d5-4a00-ad0e-ff424f94dccd}, ! Handle
  0.9.3;                                  ! Version Identifier

OS:SizingPeriod:DesignDay,
  {03785465-a2de-400c-b4d1-39afa443d129}, ! Handle
  Springfield Ann Clg 1% Condns DP=>MDB,  ! Name
  28,                                     ! Maximum Dry-Bulb Temperature {C}
  11,                                     ! Daily Dry-Bulb Temperature Range {deltaC}
  22.9,                                   ! Humidity Indicating Conditions at Maximum Dry-Bulb {BasedOnField A3}
  96761,                                  ! Barometric Pressure {Pa}
  3.9,                                    ! Wind Speed {m/s}
  180,                                    ! Wind Direction {deg}
  0,                                      ! Sky Clearness
  0,                                      ! Rain Indicator
  0,                                      ! Snow Indicator
  21,                                     ! Day of Month
  7,                                      ! Month
  SummerDesignDay,                        ! Day Type
  0,                                      ! Daylight Saving Time Indicator
  Dewpoint,                               ! Humidity Indicating Type
  ,                                       ! Humidity Indicating Day Schedule Name
  DefaultMultipliers,                     ! Dry-Bulb Temperature Range Modifier Type
  ,                                       ! Dry-Bulb Temperature Range Modifier Schedule Name
  ASHRAETau,                              ! Solar Model Indicator
  ,                                       ! Beam Solar Day Schedule Name
  ,                                       ! Diffuse Solar Day Schedule Name
  0.448,                                  ! ASHRAE Taub {dimensionless}
  2.097;                                  ! ASHRAE Taud {dimensionless}

OS:ComponentData,
  {a4faac81-18d9-4902-a416-e82b7a56860c}, ! Handle
  Component Data 1,                       ! Name
  {69d28316-9052-44d8-bf67-99fef1d8f526}, ! UUID
  {ac408cbf-a5aa-452d-b9cd-4bb90520802c}, ! Version UUID
  1366308566,                             ! Creation Timestamp
  1366308566,                             ! Version Timestamp
  {03785465-a2de-400c-b4d1-39afa443d129}; ! Name of Object 1

