
OS:Version,
  {80b27dda-ff52-4cfa-a833-42b0529c58a4}, ! Handle
  0.9.3;                                  ! Version Identifier

OS:SizingPeriod:DesignDay,
  {fdc50631-2f91-4016-8109-264512b9e315}, ! Handle
  Webster City Ann Htg 99.6% Condns DB,   ! Name
  -21.1,                                  ! Maximum Dry-Bulb Temperature {C}
  0,                                      ! Daily Dry-Bulb Temperature Range {deltaC}
  -21.1,                                  ! Humidity Indicating Conditions at Maximum Dry-Bulb {BasedOnField A3}
  97283,                                  ! Barometric Pressure {Pa}
  3.7,                                    ! Wind Speed {m/s}
  0,                                      ! Wind Direction {deg}
  0,                                      ! Sky Clearness
  0,                                      ! Rain Indicator
  0,                                      ! Snow Indicator
  21,                                     ! Day of Month
  1,                                      ! Month
  WinterDesignDay,                        ! Day Type
  0,                                      ! Daylight Saving Time Indicator
  Wetbulb,                                ! Humidity Indicating Type
  ,                                       ! Humidity Indicating Day Schedule Name
  DefaultMultipliers,                     ! Dry-Bulb Temperature Range Modifier Type
  ,                                       ! Dry-Bulb Temperature Range Modifier Schedule Name
  ASHRAEClearSky;                         ! Solar Model Indicator

OS:ComponentData,
  {e855fa73-33d6-4bf7-8f5c-aa30a333a062}, ! Handle
  Component Data 1,                       ! Name
  {f4789274-a5c2-4f1b-ab90-7aae11637ea3}, ! UUID
  {3c6972ba-5c3a-4f70-bff7-2c588f4fcce4}, ! Version UUID
  1366307257,                             ! Creation Timestamp
  1366307257,                             ! Version Timestamp
  {fdc50631-2f91-4016-8109-264512b9e315}; ! Name of Object 1

