
OS:Version,
  {3e148a65-1b97-47fb-9f3a-a2bd690de59b}, ! Handle
  0.9.3;                                  ! Version Identifier

OS:SizingPeriod:DesignDay,
  {741871f9-a74f-4bf9-ab8d-dc67a0322ee9}, ! Handle
  Raleigh Durham International Ann Clg 1% Condns WB=>MDB, ! Name
  31,                                     ! Maximum Dry-Bulb Temperature {C}
  10.5,                                   ! Daily Dry-Bulb Temperature Range {deltaC}
  25.2,                                   ! Humidity Indicating Conditions at Maximum Dry-Bulb {BasedOnField A3}
  99809,                                  ! Barometric Pressure {Pa}
  4,                                      ! Wind Speed {m/s}
  240,                                    ! Wind Direction {deg}
  0,                                      ! Sky Clearness
  0,                                      ! Rain Indicator
  0,                                      ! Snow Indicator
  21,                                     ! Day of Month
  7,                                      ! Month
  SummerDesignDay,                        ! Day Type
  0,                                      ! Daylight Saving Time Indicator
  Wetbulb,                                ! Humidity Indicating Type
  ,                                       ! Humidity Indicating Day Schedule Name
  DefaultMultipliers,                     ! Dry-Bulb Temperature Range Modifier Type
  ,                                       ! Dry-Bulb Temperature Range Modifier Schedule Name
  ASHRAETau,                              ! Solar Model Indicator
  ,                                       ! Beam Solar Day Schedule Name
  ,                                       ! Diffuse Solar Day Schedule Name
  0.577,                                  ! ASHRAE Taub {dimensionless}
  1.722;                                  ! ASHRAE Taud {dimensionless}

OS:ComponentData,
  {cb532fe8-fe1e-481d-acff-ec80a4ec2343}, ! Handle
  Component Data 1,                       ! Name
  {b87dbece-53b3-48ac-a174-cf57b2d284ce}, ! UUID
  {44c346c9-40f5-44ad-964b-00c2810713d2}, ! Version UUID
  1366308974,                             ! Creation Timestamp
  1366308974,                             ! Version Timestamp
  {741871f9-a74f-4bf9-ab8d-dc67a0322ee9}; ! Name of Object 1

