
OS:Version,
  {75726d4d-281c-42ef-8249-095682e1ef65}, ! Handle
  0.9.3;                                  ! Version Identifier

OS:SizingPeriod:DesignDay,
  {72b7d593-c0ac-4741-a3de-de4c3aae3c8a}, ! Handle
  SAVANNAH Ann Clg .4% Condns Enth=>MDB,  ! Name
  31.8,                                   ! Maximum Dry-Bulb Temperature {C}
  10,                                     ! Daily Dry-Bulb Temperature Range {deltaC}
  83500,                                  ! Humidity Indicating Conditions at Maximum Dry-Bulb {BasedOnField A3}
  101133,                                 ! Barometric Pressure {Pa}
  3.7,                                    ! Wind Speed {m/s}
  290,                                    ! Wind Direction {deg}
  0,                                      ! Sky Clearness
  0,                                      ! Rain Indicator
  0,                                      ! Snow Indicator
  21,                                     ! Day of Month
  7,                                      ! Month
  SummerDesignDay,                        ! Day Type
  0,                                      ! Daylight Saving Time Indicator
  Enthalpy,                               ! Humidity Indicating Type
  ,                                       ! Humidity Indicating Day Schedule Name
  DefaultMultipliers,                     ! Dry-Bulb Temperature Range Modifier Type
  ,                                       ! Dry-Bulb Temperature Range Modifier Schedule Name
  ASHRAETau,                              ! Solar Model Indicator
  ,                                       ! Beam Solar Day Schedule Name
  ,                                       ! Diffuse Solar Day Schedule Name
  0.558,                                  ! ASHRAE Taub {dimensionless}
  1.811;                                  ! ASHRAE Taud {dimensionless}

OS:ComponentData,
  {b5db322f-45b0-47d3-ba2e-2c1a0c6fa183}, ! Handle
  Component Data 1,                       ! Name
  {43cf7aef-e3d3-48d4-913f-bc2a9be893c8}, ! UUID
  {9b65130f-6a6c-432f-8833-01b9b31e9ed3}, ! Version UUID
  1366307050,                             ! Creation Timestamp
  1366307050,                             ! Version Timestamp
  {72b7d593-c0ac-4741-a3de-de4c3aae3c8a}; ! Name of Object 1

