
OS:Version,
  {0b4aaba9-99d6-4349-8547-4c9e59791f00}, ! Handle
  0.9.3;                                  ! Version Identifier

OS:SizingPeriod:DesignDay,
  {e9369465-d26e-4c2e-aec5-6465220aeb6e}, ! Handle
  Tulsa International Airport Ann Clg .4% Condns DP=>MDB, ! Name
  29.6,                                   ! Maximum Dry-Bulb Temperature {C}
  10.5,                                   ! Daily Dry-Bulb Temperature Range {deltaC}
  24.2,                                   ! Humidity Indicating Conditions at Maximum Dry-Bulb {BasedOnField A3}
  98969,                                  ! Barometric Pressure {Pa}
  4.9,                                    ! Wind Speed {m/s}
  190,                                    ! Wind Direction {deg}
  0,                                      ! Sky Clearness
  0,                                      ! Rain Indicator
  0,                                      ! Snow Indicator
  21,                                     ! Day of Month
  7,                                      ! Month
  SummerDesignDay,                        ! Day Type
  0,                                      ! Daylight Saving Time Indicator
  Dewpoint,                               ! Humidity Indicating Type
  ,                                       ! Humidity Indicating Day Schedule Name
  DefaultMultipliers,                     ! Dry-Bulb Temperature Range Modifier Type
  ,                                       ! Dry-Bulb Temperature Range Modifier Schedule Name
  ASHRAETau,                              ! Solar Model Indicator
  ,                                       ! Beam Solar Day Schedule Name
  ,                                       ! Diffuse Solar Day Schedule Name
  0.453,                                  ! ASHRAE Taub {dimensionless}
  2.105;                                  ! ASHRAE Taud {dimensionless}

OS:ComponentData,
  {6b3198a3-b4e7-4ea7-8fb7-022408fcd7b4}, ! Handle
  Component Data 1,                       ! Name
  {b19f9d78-e84a-4ded-949a-33c8d3b9e2c6}, ! UUID
  {7aeb2812-330e-4359-8661-80f4ca5e71fc}, ! Version UUID
  1366309959,                             ! Creation Timestamp
  1366309959,                             ! Version Timestamp
  {e9369465-d26e-4c2e-aec5-6465220aeb6e}; ! Name of Object 1

