
OS:Version,
  {89a00572-bdd7-427e-9c5f-a77a9b3a9f54}, ! Handle
  0.9.3;                                  ! Version Identifier

OS:SizingPeriod:DesignDay,
  {a38d65f1-34ad-45d7-893f-87ac5b584417}, ! Handle
  Soldotna Ann Htg 99% Condns DB,         ! Name
  -28.6,                                  ! Maximum Dry-Bulb Temperature {C}
  0,                                      ! Daily Dry-Bulb Temperature Range {deltaC}
  -28.6,                                  ! Humidity Indicating Conditions at Maximum Dry-Bulb {BasedOnField A3}
  100917,                                 ! Barometric Pressure {Pa}
  0.9,                                    ! Wind Speed {m/s}
  100,                                    ! Wind Direction {deg}
  0,                                      ! Sky Clearness
  0,                                      ! Rain Indicator
  0,                                      ! Snow Indicator
  21,                                     ! Day of Month
  1,                                      ! Month
  WinterDesignDay,                        ! Day Type
  0,                                      ! Daylight Saving Time Indicator
  Wetbulb,                                ! Humidity Indicating Type
  ,                                       ! Humidity Indicating Day Schedule Name
  DefaultMultipliers,                     ! Dry-Bulb Temperature Range Modifier Type
  ,                                       ! Dry-Bulb Temperature Range Modifier Schedule Name
  ASHRAEClearSky;                         ! Solar Model Indicator

OS:ComponentData,
  {7df2c634-3984-4dfc-bfc9-ffdc48a889e1}, ! Handle
  Component Data 1,                       ! Name
  {c5948150-6635-4529-b7bf-85cd1638a141}, ! UUID
  {dcd14625-0f87-457c-9923-916579803496}, ! Version UUID
  1366305565,                             ! Creation Timestamp
  1366305565,                             ! Version Timestamp
  {a38d65f1-34ad-45d7-893f-87ac5b584417}; ! Name of Object 1

