
OS:Version,
  {3a99e618-028c-4024-8398-c6676edb9b3b}, ! Handle
  0.9.3;                                  ! Version Identifier

OS:SizingPeriod:DesignDay,
  {ee796e97-06bc-46c8-bd28-8b0a63a7d898}, ! Handle
  TUCSON Ann Clg 2% Condns DP=>MDB,       ! Name
  25.3,                                   ! Maximum Dry-Bulb Temperature {C}
  13.8,                                   ! Daily Dry-Bulb Temperature Range {deltaC}
  19.1,                                   ! Humidity Indicating Conditions at Maximum Dry-Bulb {BasedOnField A3}
  92310,                                  ! Barometric Pressure {Pa}
  5,                                      ! Wind Speed {m/s}
  300,                                    ! Wind Direction {deg}
  0,                                      ! Sky Clearness
  0,                                      ! Rain Indicator
  0,                                      ! Snow Indicator
  21,                                     ! Day of Month
  7,                                      ! Month
  SummerDesignDay,                        ! Day Type
  0,                                      ! Daylight Saving Time Indicator
  Dewpoint,                               ! Humidity Indicating Type
  ,                                       ! Humidity Indicating Day Schedule Name
  DefaultMultipliers,                     ! Dry-Bulb Temperature Range Modifier Type
  ,                                       ! Dry-Bulb Temperature Range Modifier Schedule Name
  ASHRAETau,                              ! Solar Model Indicator
  ,                                       ! Beam Solar Day Schedule Name
  ,                                       ! Diffuse Solar Day Schedule Name
  0.555,                                  ! ASHRAE Taub {dimensionless}
  1.73;                                   ! ASHRAE Taud {dimensionless}

OS:ComponentData,
  {d3feefe3-8a06-4fff-9161-4a57b6c23f66}, ! Handle
  Component Data 1,                       ! Name
  {e4a4b475-a8e9-4f60-90e9-76fc21604c58}, ! UUID
  {62f5988b-985d-4d42-8a39-32ed3846f720}, ! Version UUID
  1366306318,                             ! Creation Timestamp
  1366306318,                             ! Version Timestamp
  {ee796e97-06bc-46c8-bd28-8b0a63a7d898}; ! Name of Object 1

