
OS:Version,
  {6dfea645-d0fe-4d9d-bd5f-a950548b374c}, ! Handle
  0.9.3;                                  ! Version Identifier

OS:SizingPeriod:DesignDay,
  {bc82c3ef-2142-445c-8ce8-b8b31337d705}, ! Handle
  Sioux Falls Foss Field Ann Clg 2% Condns DP=>MDB, ! Name
  26.6,                                   ! Maximum Dry-Bulb Temperature {C}
  11.5,                                   ! Daily Dry-Bulb Temperature Range {deltaC}
  21.4,                                   ! Humidity Indicating Conditions at Maximum Dry-Bulb {BasedOnField A3}
  96230,                                  ! Barometric Pressure {Pa}
  6.5,                                    ! Wind Speed {m/s}
  180,                                    ! Wind Direction {deg}
  0,                                      ! Sky Clearness
  0,                                      ! Rain Indicator
  0,                                      ! Snow Indicator
  21,                                     ! Day of Month
  7,                                      ! Month
  SummerDesignDay,                        ! Day Type
  0,                                      ! Daylight Saving Time Indicator
  Dewpoint,                               ! Humidity Indicating Type
  ,                                       ! Humidity Indicating Day Schedule Name
  DefaultMultipliers,                     ! Dry-Bulb Temperature Range Modifier Type
  ,                                       ! Dry-Bulb Temperature Range Modifier Schedule Name
  ASHRAETau,                              ! Solar Model Indicator
  ,                                       ! Beam Solar Day Schedule Name
  ,                                       ! Diffuse Solar Day Schedule Name
  0.392,                                  ! ASHRAE Taub {dimensionless}
  2.283;                                  ! ASHRAE Taud {dimensionless}

OS:ComponentData,
  {3bd0d918-eb15-42a6-a5cf-f8492dcddd90}, ! Handle
  Component Data 1,                       ! Name
  {bba677bb-e72f-441e-9091-8c8a0be8a74b}, ! UUID
  {6fad84c3-65fa-4b80-9e19-b924644de959}, ! Version UUID
  1366310460,                             ! Creation Timestamp
  1366310460,                             ! Version Timestamp
  {bc82c3ef-2142-445c-8ce8-b8b31337d705}; ! Name of Object 1

