
OS:Version,
  {f6d6b956-fe01-41ea-8e57-7835df8abbce}, ! Handle
  0.9.3;                                  ! Version Identifier

OS:SizingPeriod:DesignDay,
  {9c16945e-9fcf-4ee5-9e82-8c45f9a78ecc}, ! Handle
  Norfolk Nas Ann Clg 2% Condns WB=>MDB,  ! Name
  30.1,                                   ! Maximum Dry-Bulb Temperature {C}
  7.9,                                    ! Daily Dry-Bulb Temperature Range {deltaC}
  25.4,                                   ! Humidity Indicating Conditions at Maximum Dry-Bulb {BasedOnField A3}
  101205,                                 ! Barometric Pressure {Pa}
  4.3,                                    ! Wind Speed {m/s}
  210,                                    ! Wind Direction {deg}
  0,                                      ! Sky Clearness
  0,                                      ! Rain Indicator
  0,                                      ! Snow Indicator
  21,                                     ! Day of Month
  7,                                      ! Month
  SummerDesignDay,                        ! Day Type
  0,                                      ! Daylight Saving Time Indicator
  Wetbulb,                                ! Humidity Indicating Type
  ,                                       ! Humidity Indicating Day Schedule Name
  DefaultMultipliers,                     ! Dry-Bulb Temperature Range Modifier Type
  ,                                       ! Dry-Bulb Temperature Range Modifier Schedule Name
  ASHRAETau,                              ! Solar Model Indicator
  ,                                       ! Beam Solar Day Schedule Name
  ,                                       ! Diffuse Solar Day Schedule Name
  0.593,                                  ! ASHRAE Taub {dimensionless}
  1.694;                                  ! ASHRAE Taud {dimensionless}

