
OS:Version,
  {66b59fbe-1996-408b-bf55-2adabb6d819c}, ! Handle
  0.9.3;                                  ! Version Identifier

OS:SizingPeriod:DesignDay,
  {58eb22a1-4942-4be1-a789-f6bd24906244}, ! Handle
  YAKUTAT Ann Htg 99.6% Condns DB,        ! Name
  -17.2,                                  ! Maximum Dry-Bulb Temperature {C}
  0,                                      ! Daily Dry-Bulb Temperature Range {deltaC}
  -17.2,                                  ! Humidity Indicating Conditions at Maximum Dry-Bulb {BasedOnField A3}
  101217,                                 ! Barometric Pressure {Pa}
  0.8,                                    ! Wind Speed {m/s}
  100,                                    ! Wind Direction {deg}
  0,                                      ! Sky Clearness
  0,                                      ! Rain Indicator
  0,                                      ! Snow Indicator
  21,                                     ! Day of Month
  1,                                      ! Month
  WinterDesignDay,                        ! Day Type
  0,                                      ! Daylight Saving Time Indicator
  Wetbulb,                                ! Humidity Indicating Type
  ,                                       ! Humidity Indicating Day Schedule Name
  DefaultMultipliers,                     ! Dry-Bulb Temperature Range Modifier Type
  ,                                       ! Dry-Bulb Temperature Range Modifier Schedule Name
  ASHRAEClearSky;                         ! Solar Model Indicator

OS:ComponentData,
  {efb9193f-3a0a-4e39-aa27-ae11114592da}, ! Handle
  Component Data 1,                       ! Name
  {b5aac2d3-cd83-4095-882b-0b61319b05f8}, ! UUID
  {96425cdd-bbc0-41d0-ae32-d3c21c4cd8d2}, ! Version UUID
  1366305620,                             ! Creation Timestamp
  1366305620,                             ! Version Timestamp
  {58eb22a1-4942-4be1-a789-f6bd24906244}; ! Name of Object 1

