
OS:Version,
  {6293133b-fc0b-4f0c-9e6d-14d80d175995}, ! Handle
  0.9.3;                                  ! Version Identifier

OS:SizingPeriod:DesignDay,
  {5494ae86-dcc6-4480-bf5e-ef37b0e5fa99}, ! Handle
  WACO Ann Htg Wind 99.6% Condns WS=>MCDB, ! Name
  8.7,                                    ! Maximum Dry-Bulb Temperature {C}
  0,                                      ! Daily Dry-Bulb Temperature Range {deltaC}
  8.7,                                    ! Humidity Indicating Conditions at Maximum Dry-Bulb {BasedOnField A3}
  99477,                                  ! Barometric Pressure {Pa}
  12.5,                                   ! Wind Speed {m/s}
  0,                                      ! Wind Direction {deg}
  0,                                      ! Sky Clearness
  0,                                      ! Rain Indicator
  0,                                      ! Snow Indicator
  21,                                     ! Day of Month
  1,                                      ! Month
  WinterDesignDay,                        ! Day Type
  0,                                      ! Daylight Saving Time Indicator
  Wetbulb,                                ! Humidity Indicating Type
  ,                                       ! Humidity Indicating Day Schedule Name
  DefaultMultipliers,                     ! Dry-Bulb Temperature Range Modifier Type
  ,                                       ! Dry-Bulb Temperature Range Modifier Schedule Name
  ASHRAEClearSky;                         ! Solar Model Indicator

OS:ComponentData,
  {63e91eaf-d2dc-48eb-bbff-81df5b182de2}, ! Handle
  Component Data 1,                       ! Name
  {ae4ae468-2ff3-4368-a02c-9a6317cec7fb}, ! UUID
  {eea7c9a6-aa6b-4e7c-88f2-39a473bc75cd}, ! Version UUID
  1366310915,                             ! Creation Timestamp
  1366310915,                             ! Version Timestamp
  {5494ae86-dcc6-4480-bf5e-ef37b0e5fa99}; ! Name of Object 1

