
OS:Version,
  {9c3a0f5e-0ce0-4d7f-90b5-57a5ffe6b729}, ! Handle
  0.9.3;                                  ! Version Identifier

OS:SizingPeriod:DesignDay,
  {778889f2-e4c3-4476-80dd-4b83380d44b4}, ! Handle
  NORTH_BEND Ann Htg 99.6% Condns DB,     ! Name
  -0.8,                                   ! Maximum Dry-Bulb Temperature {C}
  0,                                      ! Daily Dry-Bulb Temperature Range {deltaC}
  -0.8,                                   ! Humidity Indicating Conditions at Maximum Dry-Bulb {BasedOnField A3}
  101265,                                 ! Barometric Pressure {Pa}
  2.6,                                    ! Wind Speed {m/s}
  150,                                    ! Wind Direction {deg}
  0,                                      ! Sky Clearness
  0,                                      ! Rain Indicator
  0,                                      ! Snow Indicator
  21,                                     ! Day of Month
  12,                                     ! Month
  WinterDesignDay,                        ! Day Type
  0,                                      ! Daylight Saving Time Indicator
  Wetbulb,                                ! Humidity Indicating Type
  ,                                       ! Humidity Indicating Day Schedule Name
  DefaultMultipliers,                     ! Dry-Bulb Temperature Range Modifier Type
  ,                                       ! Dry-Bulb Temperature Range Modifier Schedule Name
  ASHRAEClearSky;                         ! Solar Model Indicator

OS:ComponentData,
  {3726555a-c57f-4ae2-89c7-361f0e8fbb78}, ! Handle
  Component Data 1,                       ! Name
  {59200173-32e1-484a-b30b-ab5dc128d450}, ! UUID
  {e16dc584-10de-492c-a890-fa6389017e9f}, ! Version UUID
  1366310044,                             ! Creation Timestamp
  1366310044,                             ! Version Timestamp
  {778889f2-e4c3-4476-80dd-4b83380d44b4}; ! Name of Object 1

