
OS:Version,
  {959c9463-2933-4536-b1e2-e24a2aef979c}, ! Handle
  0.9.3;                                  ! Version Identifier

OS:SizingPeriod:DesignDay,
  {5eeb067f-c712-4a49-8484-6c0aa8173345}, ! Handle
  Oakland Ann Htg 99% Condns DB,          ! Name
  4.2,                                    ! Maximum Dry-Bulb Temperature {C}
  0,                                      ! Daily Dry-Bulb Temperature Range {deltaC}
  4.2,                                    ! Humidity Indicating Conditions at Maximum Dry-Bulb {BasedOnField A3}
  101313,                                 ! Barometric Pressure {Pa}
  2.2,                                    ! Wind Speed {m/s}
  50,                                     ! Wind Direction {deg}
  0,                                      ! Sky Clearness
  0,                                      ! Rain Indicator
  0,                                      ! Snow Indicator
  21,                                     ! Day of Month
  1,                                      ! Month
  WinterDesignDay,                        ! Day Type
  0,                                      ! Daylight Saving Time Indicator
  Wetbulb,                                ! Humidity Indicating Type
  ,                                       ! Humidity Indicating Day Schedule Name
  DefaultMultipliers,                     ! Dry-Bulb Temperature Range Modifier Type
  ,                                       ! Dry-Bulb Temperature Range Modifier Schedule Name
  ASHRAEClearSky;                         ! Solar Model Indicator

OS:ComponentData,
  {a7dd6bcd-1337-4dc6-b4e1-7ca743c4aa5e}, ! Handle
  Component Data 1,                       ! Name
  {074425d1-12fc-4826-8a97-b2630358ad44}, ! UUID
  {b44cb434-45f6-4191-9868-b245814f0e35}, ! Version UUID
  1366306520,                             ! Creation Timestamp
  1366306520,                             ! Version Timestamp
  {5eeb067f-c712-4a49-8484-6c0aa8173345}; ! Name of Object 1

