
OS:Version,
  {a18f74e3-08fb-46fb-8543-c77f7615e535}, ! Handle
  0.9.3;                                  ! Version Identifier

OS:SizingPeriod:DesignDay,
  {33d68bd0-cd30-4bf0-91ca-bba3521fd275}, ! Handle
  Mercury Desert Rock Ap  Surfr Ann Clg .4% Condns DP=>MDB, ! Name
  23,                                     ! Maximum Dry-Bulb Temperature {C}
  14.8,                                   ! Daily Dry-Bulb Temperature Range {deltaC}
  17.4,                                   ! Humidity Indicating Conditions at Maximum Dry-Bulb {BasedOnField A3}
  90585,                                  ! Barometric Pressure {Pa}
  5.5,                                    ! Wind Speed {m/s}
  230,                                    ! Wind Direction {deg}
  0,                                      ! Sky Clearness
  0,                                      ! Rain Indicator
  0,                                      ! Snow Indicator
  21,                                     ! Day of Month
  7,                                      ! Month
  SummerDesignDay,                        ! Day Type
  0,                                      ! Daylight Saving Time Indicator
  Dewpoint,                               ! Humidity Indicating Type
  ,                                       ! Humidity Indicating Day Schedule Name
  DefaultMultipliers,                     ! Dry-Bulb Temperature Range Modifier Type
  ,                                       ! Dry-Bulb Temperature Range Modifier Schedule Name
  ASHRAETau,                              ! Solar Model Indicator
  ,                                       ! Beam Solar Day Schedule Name
  ,                                       ! Diffuse Solar Day Schedule Name
  0.507,                                  ! ASHRAE Taub {dimensionless}
  1.746;                                  ! ASHRAE Taud {dimensionless}

OS:ComponentData,
  {c4818b95-c3fd-4620-a3d1-d69e930e00c4}, ! Handle
  Component Data 1,                       ! Name
  {7ae74a86-687b-4ad6-a12b-d45a65929c30}, ! UUID
  {8cc4ff4d-c469-4329-a280-91650b9495aa}, ! Version UUID
  1366309522,                             ! Creation Timestamp
  1366309522,                             ! Version Timestamp
  {33d68bd0-cd30-4bf0-91ca-bba3521fd275}; ! Name of Object 1

