
OS:Version,
  {9b80f1d4-ad2a-47b9-91f6-2fa48b14db0c}, ! Handle
  0.9.3;                                  ! Version Identifier

OS:SizingPeriod:DesignDay,
  {23d7a81d-9407-4ed6-9196-2993dc299f02}, ! Handle
  Madison Dane Co Regional Arpt Ann Clg .4% Condns Enth=>MDB, ! Name
  30.1,                                   ! Maximum Dry-Bulb Temperature {C}
  11.1,                                   ! Daily Dry-Bulb Temperature Range {deltaC}
  77700,                                  ! Humidity Indicating Conditions at Maximum Dry-Bulb {BasedOnField A3}
  98217,                                  ! Barometric Pressure {Pa}
  5.1,                                    ! Wind Speed {m/s}
  180,                                    ! Wind Direction {deg}
  0,                                      ! Sky Clearness
  0,                                      ! Rain Indicator
  0,                                      ! Snow Indicator
  21,                                     ! Day of Month
  7,                                      ! Month
  SummerDesignDay,                        ! Day Type
  0,                                      ! Daylight Saving Time Indicator
  Enthalpy,                               ! Humidity Indicating Type
  ,                                       ! Humidity Indicating Day Schedule Name
  DefaultMultipliers,                     ! Dry-Bulb Temperature Range Modifier Type
  ,                                       ! Dry-Bulb Temperature Range Modifier Schedule Name
  ASHRAETau,                              ! Solar Model Indicator
  ,                                       ! Beam Solar Day Schedule Name
  ,                                       ! Diffuse Solar Day Schedule Name
  0.435,                                  ! ASHRAE Taub {dimensionless}
  2.109;                                  ! ASHRAE Taud {dimensionless}

OS:ComponentData,
  {87d9442e-7fa6-487f-9d8b-60393651a595}, ! Handle
  Component Data 1,                       ! Name
  {755fb88b-bf2b-4b1e-9cc5-9926888410fc}, ! UUID
  {ba99e78b-fb0b-4a08-b4b3-eb428a1248ab}, ! Version UUID
  1366311528,                             ! Creation Timestamp
  1366311528,                             ! Version Timestamp
  {23d7a81d-9407-4ed6-9196-2993dc299f02}; ! Name of Object 1

