
OS:Version,
  {2ea16a9d-0fa1-42f3-b4d4-af069004f688}, ! Handle
  0.9.3;                                  ! Version Identifier

OS:SizingPeriod:DesignDay,
  {ffef8548-7936-48e9-9fe4-3b956945e517}, ! Handle
  Spencer Ann Hum_n 99% Condns DP=>MCDB,  ! Name
  -22.2,                                  ! Maximum Dry-Bulb Temperature {C}
  0,                                      ! Daily Dry-Bulb Temperature Range {deltaC}
  -25.9,                                  ! Humidity Indicating Conditions at Maximum Dry-Bulb {BasedOnField A3}
  96519,                                  ! Barometric Pressure {Pa}
  3.9,                                    ! Wind Speed {m/s}
  300,                                    ! Wind Direction {deg}
  0,                                      ! Sky Clearness
  0,                                      ! Rain Indicator
  0,                                      ! Snow Indicator
  21,                                     ! Day of Month
  1,                                      ! Month
  WinterDesignDay,                        ! Day Type
  0,                                      ! Daylight Saving Time Indicator
  Dewpoint,                               ! Humidity Indicating Type
  ,                                       ! Humidity Indicating Day Schedule Name
  DefaultMultipliers,                     ! Dry-Bulb Temperature Range Modifier Type
  ,                                       ! Dry-Bulb Temperature Range Modifier Schedule Name
  ASHRAEClearSky;                         ! Solar Model Indicator

OS:ComponentData,
  {bf4c341e-3374-45b2-9ec6-5ecc3b9b9dc5}, ! Handle
  Component Data 1,                       ! Name
  {f6c0e08d-e2fd-4f60-a6a7-75848466f5c3}, ! UUID
  {3f95fda7-7cd6-42ab-83fc-19992382cc4e}, ! Version UUID
  1366307242,                             ! Creation Timestamp
  1366307242,                             ! Version Timestamp
  {ffef8548-7936-48e9-9fe4-3b956945e517}; ! Name of Object 1

