
OS:Version,
  {c4f18e59-3100-46bd-9d97-f5687e85ec63}, ! Handle
  0.9.3;                                  ! Version Identifier

OS:SizingPeriod:DesignDay,
  {3fe3e887-2dfb-4f1b-89c7-8b40dfb54217}, ! Handle
  Mosinee Central Wi Ann Htg 99% Condns DB, ! Name
  -21.3,                                  ! Maximum Dry-Bulb Temperature {C}
  0,                                      ! Daily Dry-Bulb Temperature Range {deltaC}
  -21.3,                                  ! Humidity Indicating Conditions at Maximum Dry-Bulb {BasedOnField A3}
  96738,                                  ! Barometric Pressure {Pa}
  3.8,                                    ! Wind Speed {m/s}
  280,                                    ! Wind Direction {deg}
  0,                                      ! Sky Clearness
  0,                                      ! Rain Indicator
  0,                                      ! Snow Indicator
  21,                                     ! Day of Month
  1,                                      ! Month
  WinterDesignDay,                        ! Day Type
  0,                                      ! Daylight Saving Time Indicator
  Wetbulb,                                ! Humidity Indicating Type
  ,                                       ! Humidity Indicating Day Schedule Name
  DefaultMultipliers,                     ! Dry-Bulb Temperature Range Modifier Type
  ,                                       ! Dry-Bulb Temperature Range Modifier Schedule Name
  ASHRAEClearSky;                         ! Solar Model Indicator

OS:ComponentData,
  {2d9133d8-bd2c-43a9-9965-70667e904787}, ! Handle
  Component Data 1,                       ! Name
  {dbd76e02-234b-4eff-83d0-f0830527dc4b}, ! UUID
  {20040b4c-432a-45df-b1f0-5b6dc5174199}, ! Version UUID
  1366311568,                             ! Creation Timestamp
  1366311568,                             ! Version Timestamp
  {3fe3e887-2dfb-4f1b-89c7-8b40dfb54217}; ! Name of Object 1

