
OS:Version,
  {cea82853-4d09-4342-9f74-2f4ff6a26e5d}, ! Handle
  0.9.3;                                  ! Version Identifier

OS:SizingPeriod:DesignDay,
  {d935403e-c81d-4668-a320-e25892bdee53}, ! Handle
  West Palm Beach Ann Htg Wind 99% Condns WS=>MCDB, ! Name
  21.9,                                   ! Maximum Dry-Bulb Temperature {C}
  0,                                      ! Daily Dry-Bulb Temperature Range {deltaC}
  21.9,                                   ! Humidity Indicating Conditions at Maximum Dry-Bulb {BasedOnField A3}
  101253,                                 ! Barometric Pressure {Pa}
  10.8,                                   ! Wind Speed {m/s}
  320,                                    ! Wind Direction {deg}
  0,                                      ! Sky Clearness
  0,                                      ! Rain Indicator
  0,                                      ! Snow Indicator
  21,                                     ! Day of Month
  1,                                      ! Month
  WinterDesignDay,                        ! Day Type
  0,                                      ! Daylight Saving Time Indicator
  Wetbulb,                                ! Humidity Indicating Type
  ,                                       ! Humidity Indicating Day Schedule Name
  DefaultMultipliers,                     ! Dry-Bulb Temperature Range Modifier Type
  ,                                       ! Dry-Bulb Temperature Range Modifier Schedule Name
  ASHRAEClearSky;                         ! Solar Model Indicator

OS:ComponentData,
  {6c1b7f88-bb0a-4587-a9bf-cc9c3151c166}, ! Handle
  Component Data 1,                       ! Name
  {80f3c5f5-2bde-49bd-b33e-0ab6592ec2b1}, ! UUID
  {4515647b-4142-478a-81ec-29fada50a6c4}, ! Version UUID
  1366306951,                             ! Creation Timestamp
  1366306951,                             ! Version Timestamp
  {d935403e-c81d-4668-a320-e25892bdee53}; ! Name of Object 1

