
OS:Version,
  {fd7fd015-4fac-4ebc-ab72-82d5ed79d16b}, ! Handle
  0.9.3;                                  ! Version Identifier

OS:SizingPeriod:DesignDay,
  {1d82eb87-9bb4-41b9-aeed-66f12460e08f}, ! Handle
  Rock Springs Arpt  Green Rive Ann Clg 2% Condns Enth=>MDB, ! Name
  23.9,                                   ! Maximum Dry-Bulb Temperature {C}
  15.3,                                   ! Daily Dry-Bulb Temperature Range {deltaC}
  43300,                                  ! Humidity Indicating Conditions at Maximum Dry-Bulb {BasedOnField A3}
  89875,                                  ! Barometric Pressure {Pa}
  5.3,                                    ! Wind Speed {m/s}
  260,                                    ! Wind Direction {deg}
  0,                                      ! Sky Clearness
  0,                                      ! Rain Indicator
  0,                                      ! Snow Indicator
  21,                                     ! Day of Month
  7,                                      ! Month
  SummerDesignDay,                        ! Day Type
  0,                                      ! Daylight Saving Time Indicator
  Enthalpy,                               ! Humidity Indicating Type
  ,                                       ! Humidity Indicating Day Schedule Name
  DefaultMultipliers,                     ! Dry-Bulb Temperature Range Modifier Type
  ,                                       ! Dry-Bulb Temperature Range Modifier Schedule Name
  ASHRAETau,                              ! Solar Model Indicator
  ,                                       ! Beam Solar Day Schedule Name
  ,                                       ! Diffuse Solar Day Schedule Name
  0.402,                                  ! ASHRAE Taub {dimensionless}
  1.99;                                   ! ASHRAE Taud {dimensionless}

OS:ComponentData,
  {26093002-039d-4329-9ce4-d783ed7e8187}, ! Handle
  Component Data 1,                       ! Name
  {c39528d2-39dd-492b-8c9f-332923813c81}, ! UUID
  {a8cddb5d-6a7e-4036-bfe8-bafbf8297e2c}, ! Version UUID
  1366311740,                             ! Creation Timestamp
  1366311740,                             ! Version Timestamp
  {1d82eb87-9bb4-41b9-aeed-66f12460e08f}; ! Name of Object 1

