
OS:Version,
  {26d4c1e1-ed06-40b6-90ea-b69686a6a9a2}, ! Handle
  0.9.3;                                  ! Version Identifier

OS:SizingPeriod:DesignDay,
  {0555d712-4a06-4f8e-b51c-f4e28fe94f44}, ! Handle
  Nellis Afb Ann Clg 2% Condns WB=>MDB,   ! Name
  34.7,                                   ! Maximum Dry-Bulb Temperature {C}
  14.5,                                   ! Daily Dry-Bulb Temperature Range {deltaC}
  21.1,                                   ! Humidity Indicating Conditions at Maximum Dry-Bulb {BasedOnField A3}
  94628,                                  ! Barometric Pressure {Pa}
  4.6,                                    ! Wind Speed {m/s}
  220,                                    ! Wind Direction {deg}
  0,                                      ! Sky Clearness
  0,                                      ! Rain Indicator
  0,                                      ! Snow Indicator
  21,                                     ! Day of Month
  7,                                      ! Month
  SummerDesignDay,                        ! Day Type
  0,                                      ! Daylight Saving Time Indicator
  Wetbulb,                                ! Humidity Indicating Type
  ,                                       ! Humidity Indicating Day Schedule Name
  DefaultMultipliers,                     ! Dry-Bulb Temperature Range Modifier Type
  ,                                       ! Dry-Bulb Temperature Range Modifier Schedule Name
  ASHRAETau,                              ! Solar Model Indicator
  ,                                       ! Beam Solar Day Schedule Name
  ,                                       ! Diffuse Solar Day Schedule Name
  0.557,                                  ! ASHRAE Taub {dimensionless}
  1.66;                                   ! ASHRAE Taud {dimensionless}

OS:ComponentData,
  {e683fe05-ec80-4567-8a65-0b1d3277a11a}, ! Handle
  Component Data 1,                       ! Name
  {387abee7-0473-49bc-aeb5-4313a7d40276}, ! UUID
  {6d1e05f0-12ec-416d-be50-addf1ab66e2a}, ! Version UUID
  1366309527,                             ! Creation Timestamp
  1366309527,                             ! Version Timestamp
  {0555d712-4a06-4f8e-b51c-f4e28fe94f44}; ! Name of Object 1

