
OS:Version,
  {6d463c98-3f4d-469f-b4df-9a8279de5297}, ! Handle
  0.9.3;                                  ! Version Identifier

OS:SizingPeriod:DesignDay,
  {1593d66f-cc8b-4202-8aab-f53ce72e2d97}, ! Handle
  Mountain Home Afb Ann Clg .4% Condns WB=>MDB, ! Name
  33.1,                                   ! Maximum Dry-Bulb Temperature {C}
  18.4,                                   ! Daily Dry-Bulb Temperature Range {deltaC}
  19,                                     ! Humidity Indicating Conditions at Maximum Dry-Bulb {BasedOnField A3}
  90838,                                  ! Barometric Pressure {Pa}
  3.4,                                    ! Wind Speed {m/s}
  330,                                    ! Wind Direction {deg}
  0,                                      ! Sky Clearness
  0,                                      ! Rain Indicator
  0,                                      ! Snow Indicator
  21,                                     ! Day of Month
  7,                                      ! Month
  SummerDesignDay,                        ! Day Type
  0,                                      ! Daylight Saving Time Indicator
  Wetbulb,                                ! Humidity Indicating Type
  ,                                       ! Humidity Indicating Day Schedule Name
  DefaultMultipliers,                     ! Dry-Bulb Temperature Range Modifier Type
  ,                                       ! Dry-Bulb Temperature Range Modifier Schedule Name
  ASHRAETau,                              ! Solar Model Indicator
  ,                                       ! Beam Solar Day Schedule Name
  ,                                       ! Diffuse Solar Day Schedule Name
  0.425,                                  ! ASHRAE Taub {dimensionless}
  2.01;                                   ! ASHRAE Taud {dimensionless}

OS:ComponentData,
  {dfe9d675-ff51-4026-a74e-b45a6bff3b40}, ! Handle
  Component Data 1,                       ! Name
  {d1cfcb82-18f5-40b9-975f-6b043dc94573}, ! UUID
  {b05823d7-c0b9-47d6-8bc4-386cc58acc41}, ! Version UUID
  1366307296,                             ! Creation Timestamp
  1366307296,                             ! Version Timestamp
  {1593d66f-cc8b-4202-8aab-f53ce72e2d97}; ! Name of Object 1

