
OS:Version,
  {0bee7e3a-3bc5-46bb-a480-e28d849b64b0}, ! Handle
  0.9.3;                                  ! Version Identifier

OS:SizingPeriod:DesignDay,
  {624d1395-441f-4e0d-ab94-34a2fe39f3f7}, ! Handle
  Pipestone  Awos Ann Htg 99.6% Condns DB, ! Name
  -25.1,                                  ! Maximum Dry-Bulb Temperature {C}
  0,                                      ! Daily Dry-Bulb Temperature Range {deltaC}
  -25.1,                                  ! Humidity Indicating Conditions at Maximum Dry-Bulb {BasedOnField A3}
  95129,                                  ! Barometric Pressure {Pa}
  3.5,                                    ! Wind Speed {m/s}
  300,                                    ! Wind Direction {deg}
  0,                                      ! Sky Clearness
  0,                                      ! Rain Indicator
  0,                                      ! Snow Indicator
  21,                                     ! Day of Month
  1,                                      ! Month
  WinterDesignDay,                        ! Day Type
  0,                                      ! Daylight Saving Time Indicator
  Wetbulb,                                ! Humidity Indicating Type
  ,                                       ! Humidity Indicating Day Schedule Name
  DefaultMultipliers,                     ! Dry-Bulb Temperature Range Modifier Type
  ,                                       ! Dry-Bulb Temperature Range Modifier Schedule Name
  ASHRAEClearSky;                         ! Solar Model Indicator

OS:ComponentData,
  {dfbae4bd-2045-4a5a-aade-b65be9d76048}, ! Handle
  Component Data 1,                       ! Name
  {b5e27f80-19b0-46e8-973b-ccc2afed5cfd}, ! UUID
  {79dd5f10-3141-4d51-9135-37ac1407db70}, ! Version UUID
  1366308363,                             ! Creation Timestamp
  1366308363,                             ! Version Timestamp
  {624d1395-441f-4e0d-ab94-34a2fe39f3f7}; ! Name of Object 1

