
OS:Version,
  {2a8db07a-1c4b-45d4-ae24-423c27561e49}, ! Handle
  0.9.3;                                  ! Version Identifier

OS:SizingPeriod:DesignDay,
  {4951e403-8fce-4315-a25f-9b92c5b6c7b2}, ! Handle
  Valdez Pioneer Fiel Ann Clg 1% Condns Enth=>MDB, ! Name
  17.7,                                   ! Maximum Dry-Bulb Temperature {C}
  7,                                      ! Daily Dry-Bulb Temperature Range {deltaC}
  38000,                                  ! Humidity Indicating Conditions at Maximum Dry-Bulb {BasedOnField A3}
  100869,                                 ! Barometric Pressure {Pa}
  3.6,                                    ! Wind Speed {m/s}
  260,                                    ! Wind Direction {deg}
  0,                                      ! Sky Clearness
  0,                                      ! Rain Indicator
  0,                                      ! Snow Indicator
  21,                                     ! Day of Month
  7,                                      ! Month
  SummerDesignDay,                        ! Day Type
  0,                                      ! Daylight Saving Time Indicator
  Enthalpy,                               ! Humidity Indicating Type
  ,                                       ! Humidity Indicating Day Schedule Name
  DefaultMultipliers,                     ! Dry-Bulb Temperature Range Modifier Type
  ,                                       ! Dry-Bulb Temperature Range Modifier Schedule Name
  ASHRAETau,                              ! Solar Model Indicator
  ,                                       ! Beam Solar Day Schedule Name
  ,                                       ! Diffuse Solar Day Schedule Name
  0.405,                                  ! ASHRAE Taub {dimensionless}
  2.035;                                  ! ASHRAE Taud {dimensionless}

OS:ComponentData,
  {2510ed4d-fbac-4bda-b72b-a91de2cbbc12}, ! Handle
  Component Data 1,                       ! Name
  {8e44e92e-8e3f-4b71-81d6-c4efe9f77778}, ! UUID
  {9e45efb1-a265-4dcb-b15e-dd12d8dddf15}, ! Version UUID
  1366305606,                             ! Creation Timestamp
  1366305606,                             ! Version Timestamp
  {4951e403-8fce-4315-a25f-9b92c5b6c7b2}; ! Name of Object 1

