
OS:Version,
  {a7be1852-df99-46f3-97ab-a8fa81c156d1}, ! Handle
  0.9.3;                                  ! Version Identifier

OS:SizingPeriod:DesignDay,
  {870db41f-54e1-42f7-9f35-dea63d743ad6}, ! Handle
  Whidbey Island Nas Ann Clg .4% Condns DB=>MWB, ! Name
  22.4,                                   ! Maximum Dry-Bulb Temperature {C}
  7.8,                                    ! Daily Dry-Bulb Temperature Range {deltaC}
  16.4,                                   ! Humidity Indicating Conditions at Maximum Dry-Bulb {BasedOnField A3}
  101205,                                 ! Barometric Pressure {Pa}
  3,                                      ! Wind Speed {m/s}
  260,                                    ! Wind Direction {deg}
  0,                                      ! Sky Clearness
  0,                                      ! Rain Indicator
  0,                                      ! Snow Indicator
  21,                                     ! Day of Month
  8,                                      ! Month
  SummerDesignDay,                        ! Day Type
  0,                                      ! Daylight Saving Time Indicator
  Wetbulb,                                ! Humidity Indicating Type
  ,                                       ! Humidity Indicating Day Schedule Name
  DefaultMultipliers,                     ! Dry-Bulb Temperature Range Modifier Type
  ,                                       ! Dry-Bulb Temperature Range Modifier Schedule Name
  ASHRAETau,                              ! Solar Model Indicator
  ,                                       ! Beam Solar Day Schedule Name
  ,                                       ! Diffuse Solar Day Schedule Name
  0.356,                                  ! ASHRAE Taub {dimensionless}
  2.524;                                  ! ASHRAE Taud {dimensionless}

OS:ComponentData,
  {cfd2d374-76ee-4b81-8f16-fa9fde7198c9}, ! Handle
  Component Data 1,                       ! Name
  {e40f9bd2-5c8c-4f26-8d2b-48d50aad6e76}, ! UUID
  {029f3709-ec52-40dd-a19e-1bd607021e4e}, ! Version UUID
  1366311436,                             ! Creation Timestamp
  1366311436,                             ! Version Timestamp
  {870db41f-54e1-42f7-9f35-dea63d743ad6}; ! Name of Object 1

