
OS:Version,
  {2eecccd6-c933-4790-b5f8-9a5f0b671aac}, ! Handle
  0.9.3;                                  ! Version Identifier

OS:SizingPeriod:DesignDay,
  {c90b3cee-caf6-464c-878d-ee54b5bc7c60}, ! Handle
  New Orleans Alvin Callender F Ann Htg Wind 99.6% Condns WS=>MCDB, ! Name
  15.7,                                   ! Maximum Dry-Bulb Temperature {C}
  0,                                      ! Daily Dry-Bulb Temperature Range {deltaC}
  15.7,                                   ! Humidity Indicating Conditions at Maximum Dry-Bulb {BasedOnField A3}
  101301,                                 ! Barometric Pressure {Pa}
  9.1,                                    ! Wind Speed {m/s}
  20,                                     ! Wind Direction {deg}
  0,                                      ! Sky Clearness
  0,                                      ! Rain Indicator
  0,                                      ! Snow Indicator
  21,                                     ! Day of Month
  1,                                      ! Month
  WinterDesignDay,                        ! Day Type
  0,                                      ! Daylight Saving Time Indicator
  Wetbulb,                                ! Humidity Indicating Type
  ,                                       ! Humidity Indicating Day Schedule Name
  DefaultMultipliers,                     ! Dry-Bulb Temperature Range Modifier Type
  ,                                       ! Dry-Bulb Temperature Range Modifier Schedule Name
  ASHRAEClearSky;                         ! Solar Model Indicator

OS:ComponentData,
  {d5f2d461-4304-4123-947b-36b60fa823d5}, ! Handle
  Component Data 1,                       ! Name
  {d8bcab73-cdc5-4f37-bdc1-0a039328de84}, ! UUID
  {f708b09c-ef96-4dfe-a53b-3d177769e4fb}, ! Version UUID
  1366307739,                             ! Creation Timestamp
  1366307739,                             ! Version Timestamp
  {c90b3cee-caf6-464c-878d-ee54b5bc7c60}; ! Name of Object 1

