
OS:Version,
  {da3ae77d-92ed-4800-af80-9ff607704709}, ! Handle
  0.9.3;                                  ! Version Identifier

OS:SizingPeriod:DesignDay,
  {2f8ec4ef-8159-489a-b513-c27478a94d20}, ! Handle
  Ocala Muni  Awos Ann Clg 2% Condns DB=>MWB, ! Name
  32.6,                                   ! Maximum Dry-Bulb Temperature {C}
  10.3,                                   ! Daily Dry-Bulb Temperature Range {deltaC}
  23.9,                                   ! Humidity Indicating Conditions at Maximum Dry-Bulb {BasedOnField A3}
  101001,                                 ! Barometric Pressure {Pa}
  3.2,                                    ! Wind Speed {m/s}
  250,                                    ! Wind Direction {deg}
  0,                                      ! Sky Clearness
  0,                                      ! Rain Indicator
  0,                                      ! Snow Indicator
  21,                                     ! Day of Month
  7,                                      ! Month
  SummerDesignDay,                        ! Day Type
  0,                                      ! Daylight Saving Time Indicator
  Wetbulb,                                ! Humidity Indicating Type
  ,                                       ! Humidity Indicating Day Schedule Name
  DefaultMultipliers,                     ! Dry-Bulb Temperature Range Modifier Type
  ,                                       ! Dry-Bulb Temperature Range Modifier Schedule Name
  ASHRAETau,                              ! Solar Model Indicator
  ,                                       ! Beam Solar Day Schedule Name
  ,                                       ! Diffuse Solar Day Schedule Name
  0.524,                                  ! ASHRAE Taub {dimensionless}
  1.897;                                  ! ASHRAE Taud {dimensionless}

OS:ComponentData,
  {33b9dfe3-046c-4d1e-be60-95dd87690731}, ! Handle
  Component Data 1,                       ! Name
  {a388a7ae-46c7-4d9a-8bcc-cfd043bac6a5}, ! UUID
  {15eb4aab-a8a9-4588-bc5e-939fed967005}, ! Version UUID
  1366306881,                             ! Creation Timestamp
  1366306881,                             ! Version Timestamp
  {2f8ec4ef-8159-489a-b513-c27478a94d20}; ! Name of Object 1

