
OS:Version,
  {b2b44e35-5c21-452e-b4b1-3d215990635b}, ! Handle
  0.9.3;                                  ! Version Identifier

OS:SizingPeriod:DesignDay,
  {680342e8-317b-407c-b454-4520d093791b}, ! Handle
  Whidbey Island Nas Ann Clg .4% Condns DP=>MDB, ! Name
  18,                                     ! Maximum Dry-Bulb Temperature {C}
  7.8,                                    ! Daily Dry-Bulb Temperature Range {deltaC}
  15.3,                                   ! Humidity Indicating Conditions at Maximum Dry-Bulb {BasedOnField A3}
  101205,                                 ! Barometric Pressure {Pa}
  3,                                      ! Wind Speed {m/s}
  260,                                    ! Wind Direction {deg}
  0,                                      ! Sky Clearness
  0,                                      ! Rain Indicator
  0,                                      ! Snow Indicator
  21,                                     ! Day of Month
  8,                                      ! Month
  SummerDesignDay,                        ! Day Type
  0,                                      ! Daylight Saving Time Indicator
  Dewpoint,                               ! Humidity Indicating Type
  ,                                       ! Humidity Indicating Day Schedule Name
  DefaultMultipliers,                     ! Dry-Bulb Temperature Range Modifier Type
  ,                                       ! Dry-Bulb Temperature Range Modifier Schedule Name
  ASHRAETau,                              ! Solar Model Indicator
  ,                                       ! Beam Solar Day Schedule Name
  ,                                       ! Diffuse Solar Day Schedule Name
  0.356,                                  ! ASHRAE Taub {dimensionless}
  2.524;                                  ! ASHRAE Taud {dimensionless}

OS:ComponentData,
  {ebd37348-f18d-4859-ba41-0223b0c46879}, ! Handle
  Component Data 1,                       ! Name
  {9cdacb75-29dd-4024-8bd8-cef1af426536}, ! UUID
  {f0279ba5-7a54-4ced-9f37-f67cdd4bb8fd}, ! Version UUID
  1366311437,                             ! Creation Timestamp
  1366311437,                             ! Version Timestamp
  {680342e8-317b-407c-b454-4520d093791b}; ! Name of Object 1

