
OS:Version,
  {6f8374ba-3639-48e4-a9d9-a0a3bc24c4f9}, ! Handle
  0.9.3;                                  ! Version Identifier

OS:SizingPeriod:DesignDay,
  {58747c2b-41d5-4b17-ab65-95510f90f3d3}, ! Handle
  Raleigh Durham International Ann Htg 99.6% Condns DB, ! Name
  -7.4,                                   ! Maximum Dry-Bulb Temperature {C}
  0,                                      ! Daily Dry-Bulb Temperature Range {deltaC}
  -7.4,                                   ! Humidity Indicating Conditions at Maximum Dry-Bulb {BasedOnField A3}
  99809,                                  ! Barometric Pressure {Pa}
  2.8,                                    ! Wind Speed {m/s}
  30,                                     ! Wind Direction {deg}
  0,                                      ! Sky Clearness
  0,                                      ! Rain Indicator
  0,                                      ! Snow Indicator
  21,                                     ! Day of Month
  1,                                      ! Month
  WinterDesignDay,                        ! Day Type
  0,                                      ! Daylight Saving Time Indicator
  Wetbulb,                                ! Humidity Indicating Type
  ,                                       ! Humidity Indicating Day Schedule Name
  DefaultMultipliers,                     ! Dry-Bulb Temperature Range Modifier Type
  ,                                       ! Dry-Bulb Temperature Range Modifier Schedule Name
  ASHRAEClearSky;                         ! Solar Model Indicator

OS:ComponentData,
  {ef8f2f5c-ff7c-46d7-b846-d0c00f407b02}, ! Handle
  Component Data 1,                       ! Name
  {605b6715-23a8-403a-8ebd-c85dd3e79d9e}, ! UUID
  {2106c21b-634e-4292-bf64-ecb9cf42ba25}, ! Version UUID
  1366308972,                             ! Creation Timestamp
  1366308972,                             ! Version Timestamp
  {58747c2b-41d5-4b17-ab65-95510f90f3d3}; ! Name of Object 1

