
OS:Version,
  {bc6c755a-e067-4465-9409-6db10385a107}, ! Handle
  0.9.3;                                  ! Version Identifier

OS:SizingPeriod:DesignDay,
  {fe0102ad-5235-4c78-a0ff-29ab5d093e33}, ! Handle
  St Louis/Int'l Airport Ann Htg Wind 99.6% Condns WS=>MCDB, ! Name
  -2.3,                                   ! Maximum Dry-Bulb Temperature {C}
  0,                                      ! Daily Dry-Bulb Temperature Range {deltaC}
  -2.3,                                   ! Humidity Indicating Conditions at Maximum Dry-Bulb {BasedOnField A3}
  99276,                                  ! Barometric Pressure {Pa}
  12.7,                                   ! Wind Speed {m/s}
  300,                                    ! Wind Direction {deg}
  0,                                      ! Sky Clearness
  0,                                      ! Rain Indicator
  0,                                      ! Snow Indicator
  21,                                     ! Day of Month
  1,                                      ! Month
  WinterDesignDay,                        ! Day Type
  0,                                      ! Daylight Saving Time Indicator
  Wetbulb,                                ! Humidity Indicating Type
  ,                                       ! Humidity Indicating Day Schedule Name
  DefaultMultipliers,                     ! Dry-Bulb Temperature Range Modifier Type
  ,                                       ! Dry-Bulb Temperature Range Modifier Schedule Name
  ASHRAEClearSky;                         ! Solar Model Indicator

OS:ComponentData,
  {6e833342-9fad-438c-87b9-0a1504dca335}, ! Handle
  Component Data 1,                       ! Name
  {05e3da10-3a5a-4cca-bb26-16b0b6a11cbe}, ! UUID
  {7f2a5a18-9840-4047-929a-526ac3f7c087}, ! Version UUID
  1366308577,                             ! Creation Timestamp
  1366308577,                             ! Version Timestamp
  {fe0102ad-5235-4c78-a0ff-29ab5d093e33}; ! Name of Object 1

