
OS:Version,
  {e51b44ca-eba4-426c-aae5-bfe50ed21bee}, ! Handle
  0.9.3;                                  ! Version Identifier

OS:SizingPeriod:DesignDay,
  {130aff27-2758-4818-88c1-da08a9b76e7d}, ! Handle
  Roanoke Ann Clg .4% Condns DB=>MWB,     ! Name
  33.4,                                   ! Maximum Dry-Bulb Temperature {C}
  10.6,                                   ! Daily Dry-Bulb Temperature Range {deltaC}
  22.7,                                   ! Humidity Indicating Conditions at Maximum Dry-Bulb {BasedOnField A3}
  97098,                                  ! Barometric Pressure {Pa}
  4,                                      ! Wind Speed {m/s}
  280,                                    ! Wind Direction {deg}
  0,                                      ! Sky Clearness
  0,                                      ! Rain Indicator
  0,                                      ! Snow Indicator
  21,                                     ! Day of Month
  7,                                      ! Month
  SummerDesignDay,                        ! Day Type
  0,                                      ! Daylight Saving Time Indicator
  Wetbulb,                                ! Humidity Indicating Type
  ,                                       ! Humidity Indicating Day Schedule Name
  DefaultMultipliers,                     ! Dry-Bulb Temperature Range Modifier Type
  ,                                       ! Dry-Bulb Temperature Range Modifier Schedule Name
  ASHRAETau,                              ! Solar Model Indicator
  ,                                       ! Beam Solar Day Schedule Name
  ,                                       ! Diffuse Solar Day Schedule Name
  0.529,                                  ! ASHRAE Taub {dimensionless}
  1.818;                                  ! ASHRAE Taud {dimensionless}

OS:ComponentData,
  {5319cc83-2c7c-4d10-9243-b64ef045c851}, ! Handle
  Component Data 1,                       ! Name
  {f6af0591-4c80-4fba-b427-47dd8288b51b}, ! UUID
  {e05beb72-b15a-451b-b60c-91602dfd70c5}, ! Version UUID
  1366311185,                             ! Creation Timestamp
  1366311185,                             ! Version Timestamp
  {130aff27-2758-4818-88c1-da08a9b76e7d}; ! Name of Object 1

