
OS:Version,
  {110e19bc-f886-415d-8143-2c039019d37f}, ! Handle
  0.9.3;                                  ! Version Identifier

OS:SizingPeriod:DesignDay,
  {530b8bd5-2f19-4d8e-b174-564c14b26901}, ! Handle
  Philadelphia/Willow Gr Ann Clg .4% Condns DB=>MWB, ! Name
  34,                                     ! Maximum Dry-Bulb Temperature {C}
  9.4,                                    ! Daily Dry-Bulb Temperature Range {deltaC}
  24.1,                                   ! Humidity Indicating Conditions at Maximum Dry-Bulb {BasedOnField A3}
  100011,                                 ! Barometric Pressure {Pa}
  5,                                      ! Wind Speed {m/s}
  240,                                    ! Wind Direction {deg}
  0,                                      ! Sky Clearness
  0,                                      ! Rain Indicator
  0,                                      ! Snow Indicator
  21,                                     ! Day of Month
  7,                                      ! Month
  SummerDesignDay,                        ! Day Type
  0,                                      ! Daylight Saving Time Indicator
  Wetbulb,                                ! Humidity Indicating Type
  ,                                       ! Humidity Indicating Day Schedule Name
  DefaultMultipliers,                     ! Dry-Bulb Temperature Range Modifier Type
  ,                                       ! Dry-Bulb Temperature Range Modifier Schedule Name
  ASHRAETau,                              ! Solar Model Indicator
  ,                                       ! Beam Solar Day Schedule Name
  ,                                       ! Diffuse Solar Day Schedule Name
  0.55,                                   ! ASHRAE Taub {dimensionless}
  1.776;                                  ! ASHRAE Taud {dimensionless}

OS:ComponentData,
  {f614d064-0733-426c-8177-62788af8ee55}, ! Handle
  Component Data 1,                       ! Name
  {fd079082-c8fa-49bd-828a-54fa6576e50b}, ! UUID
  {f431706c-da00-4d15-8aee-6eb5d190a4ca}, ! Version UUID
  1366310218,                             ! Creation Timestamp
  1366310218,                             ! Version Timestamp
  {530b8bd5-2f19-4d8e-b174-564c14b26901}; ! Name of Object 1

