
OS:Version,
  {8e5cb72c-8fb7-4f46-896f-5c7a85183b83}, ! Handle
  0.9.3;                                  ! Version Identifier

OS:SizingPeriod:DesignDay,
  {82bd8360-cf70-438e-a7c1-7bb84e283c71}, ! Handle
  Paducah Barkley Regional Ap Ann Clg 1% Condns Enth=>MDB, ! Name
  31.8,                                   ! Maximum Dry-Bulb Temperature {C}
  10.8,                                   ! Daily Dry-Bulb Temperature Range {deltaC}
  80800,                                  ! Humidity Indicating Conditions at Maximum Dry-Bulb {BasedOnField A3}
  99844,                                  ! Barometric Pressure {Pa}
  3.6,                                    ! Wind Speed {m/s}
  180,                                    ! Wind Direction {deg}
  0,                                      ! Sky Clearness
  0,                                      ! Rain Indicator
  0,                                      ! Snow Indicator
  21,                                     ! Day of Month
  7,                                      ! Month
  SummerDesignDay,                        ! Day Type
  0,                                      ! Daylight Saving Time Indicator
  Enthalpy,                               ! Humidity Indicating Type
  ,                                       ! Humidity Indicating Day Schedule Name
  DefaultMultipliers,                     ! Dry-Bulb Temperature Range Modifier Type
  ,                                       ! Dry-Bulb Temperature Range Modifier Schedule Name
  ASHRAETau,                              ! Solar Model Indicator
  ,                                       ! Beam Solar Day Schedule Name
  ,                                       ! Diffuse Solar Day Schedule Name
  0.495,                                  ! ASHRAE Taub {dimensionless}
  1.94;                                   ! ASHRAE Taud {dimensionless}

OS:ComponentData,
  {a9875cc1-482c-4a24-82ff-4c5d36172834}, ! Handle
  Component Data 1,                       ! Name
  {46bbb5ad-3013-4305-b7b2-e0b910925b30}, ! UUID
  {2a66d5f9-e130-4bb6-bb6b-c44073bc7b48}, ! Version UUID
  1366307680,                             ! Creation Timestamp
  1366307680,                             ! Version Timestamp
  {82bd8360-cf70-438e-a7c1-7bb84e283c71}; ! Name of Object 1

