
OS:Version,
  {d63eca3a-dd66-45a4-b6ca-130f02584bce}, ! Handle
  0.9.3;                                  ! Version Identifier

OS:SizingPeriod:DesignDay,
  {b13c52d8-37ad-47f8-b606-95f353832d03}, ! Handle
  Rock Springs Ann Clg .4% Condns WB=>MDB, ! Name
  25.5,                                   ! Maximum Dry-Bulb Temperature {C}
  15.3,                                   ! Daily Dry-Bulb Temperature Range {deltaC}
  14.9,                                   ! Humidity Indicating Conditions at Maximum Dry-Bulb {BasedOnField A3}
  78905,                                  ! Barometric Pressure {Pa}
  5.3,                                    ! Wind Speed {m/s}
  260,                                    ! Wind Direction {deg}
  0,                                      ! Sky Clearness
  0,                                      ! Rain Indicator
  0,                                      ! Snow Indicator
  21,                                     ! Day of Month
  7,                                      ! Month
  SummerDesignDay,                        ! Day Type
  0,                                      ! Daylight Saving Time Indicator
  Wetbulb,                                ! Humidity Indicating Type
  ,                                       ! Humidity Indicating Day Schedule Name
  DefaultMultipliers,                     ! Dry-Bulb Temperature Range Modifier Type
  ,                                       ! Dry-Bulb Temperature Range Modifier Schedule Name
  ASHRAETau,                              ! Solar Model Indicator
  ,                                       ! Beam Solar Day Schedule Name
  ,                                       ! Diffuse Solar Day Schedule Name
  0.402,                                  ! ASHRAE Taub {dimensionless}
  1.99;                                   ! ASHRAE Taud {dimensionless}

OS:ComponentData,
  {06fa5e99-9e63-4fde-9de7-44ad33424b2b}, ! Handle
  Component Data 1,                       ! Name
  {a4007987-f4c3-4aa5-8910-76b198bafb06}, ! UUID
  {f106feea-cf96-40a8-96f4-019d8a27afcd}, ! Version UUID
  1366311733,                             ! Creation Timestamp
  1366311733,                             ! Version Timestamp
  {b13c52d8-37ad-47f8-b606-95f353832d03}; ! Name of Object 1

