
OS:Version,
  {615eabdd-4872-4634-b8af-e2ed24cf2154}, ! Handle
  0.9.3;                                  ! Version Identifier

OS:SizingPeriod:DesignDay,
  {4d24b25e-494b-41d7-bfe6-ac2052619df1}, ! Handle
  Mason City Municipal Arpt Ann Clg 2% Condns DB=>MWB, ! Name
  29.4,                                   ! Maximum Dry-Bulb Temperature {C}
  11.5,                                   ! Daily Dry-Bulb Temperature Range {deltaC}
  22.1,                                   ! Humidity Indicating Conditions at Maximum Dry-Bulb {BasedOnField A3}
  97028,                                  ! Barometric Pressure {Pa}
  6.4,                                    ! Wind Speed {m/s}
  200,                                    ! Wind Direction {deg}
  0,                                      ! Sky Clearness
  0,                                      ! Rain Indicator
  0,                                      ! Snow Indicator
  21,                                     ! Day of Month
  7,                                      ! Month
  SummerDesignDay,                        ! Day Type
  0,                                      ! Daylight Saving Time Indicator
  Wetbulb,                                ! Humidity Indicating Type
  ,                                       ! Humidity Indicating Day Schedule Name
  DefaultMultipliers,                     ! Dry-Bulb Temperature Range Modifier Type
  ,                                       ! Dry-Bulb Temperature Range Modifier Schedule Name
  ASHRAETau,                              ! Solar Model Indicator
  ,                                       ! Beam Solar Day Schedule Name
  ,                                       ! Diffuse Solar Day Schedule Name
  0.409,                                  ! ASHRAE Taub {dimensionless}
  2.21;                                   ! ASHRAE Taud {dimensionless}

OS:ComponentData,
  {d6112774-a6ca-47fa-b8cb-e7bb09ab1344}, ! Handle
  Component Data 1,                       ! Name
  {68b06dd1-e61e-4d61-b8e1-f2a5c537d865}, ! UUID
  {77710cb5-27db-45df-bbad-fdf55a5dd424}, ! Version UUID
  1366307217,                             ! Creation Timestamp
  1366307217,                             ! Version Timestamp
  {4d24b25e-494b-41d7-bfe6-ac2052619df1}; ! Name of Object 1

