
OS:Version,
  {06d7523a-a9b2-4d15-972a-5caf2c2a6129}, ! Handle
  0.9.3;                                  ! Version Identifier

OS:SizingPeriod:DesignDay,
  {8dca62c9-f521-4304-8a17-5b6f451fd062}, ! Handle
  Manchester Airport Ann Htg Wind 99% Condns WS=>MCDB, ! Name
  -4.5,                                   ! Maximum Dry-Bulb Temperature {C}
  0,                                      ! Daily Dry-Bulb Temperature Range {deltaC}
  -4.5,                                   ! Humidity Indicating Conditions at Maximum Dry-Bulb {BasedOnField A3}
  100499,                                 ! Barometric Pressure {Pa}
  8.9,                                    ! Wind Speed {m/s}
  330,                                    ! Wind Direction {deg}
  0,                                      ! Sky Clearness
  0,                                      ! Rain Indicator
  0,                                      ! Snow Indicator
  21,                                     ! Day of Month
  1,                                      ! Month
  WinterDesignDay,                        ! Day Type
  0,                                      ! Daylight Saving Time Indicator
  Wetbulb,                                ! Humidity Indicating Type
  ,                                       ! Humidity Indicating Day Schedule Name
  DefaultMultipliers,                     ! Dry-Bulb Temperature Range Modifier Type
  ,                                       ! Dry-Bulb Temperature Range Modifier Schedule Name
  ASHRAEClearSky;                         ! Solar Model Indicator

OS:ComponentData,
  {206436f8-109e-4415-b240-b6b92d359362}, ! Handle
  Component Data 1,                       ! Name
  {a9c73e6a-a59e-4f2e-a35e-6f1257c8d9c1}, ! UUID
  {42235cb9-777e-4d3a-af4b-e3b82c4b5fe4}, ! Version UUID
  1366309262,                             ! Creation Timestamp
  1366309262,                             ! Version Timestamp
  {8dca62c9-f521-4304-8a17-5b6f451fd062}; ! Name of Object 1

