
OS:Version,
  {78b82eb9-2fba-4d5a-b481-bb11c2ef7390}, ! Handle
  0.9.3;                                  ! Version Identifier

OS:SizingPeriod:DesignDay,
  {fe650853-1c59-466b-a01e-2f0ac5d95420}, ! Handle
  Muscle Shoals Regional Ap Ann Clg 1% Condns WB=>MDB, ! Name
  31.2,                                   ! Maximum Dry-Bulb Temperature {C}
  10.8,                                   ! Daily Dry-Bulb Temperature Range {deltaC}
  25.4,                                   ! Humidity Indicating Conditions at Maximum Dry-Bulb {BasedOnField A3}
  99358,                                  ! Barometric Pressure {Pa}
  3,                                      ! Wind Speed {m/s}
  270,                                    ! Wind Direction {deg}
  0,                                      ! Sky Clearness
  0,                                      ! Rain Indicator
  0,                                      ! Snow Indicator
  21,                                     ! Day of Month
  7,                                      ! Month
  SummerDesignDay,                        ! Day Type
  0,                                      ! Daylight Saving Time Indicator
  Wetbulb,                                ! Humidity Indicating Type
  ,                                       ! Humidity Indicating Day Schedule Name
  DefaultMultipliers,                     ! Dry-Bulb Temperature Range Modifier Type
  ,                                       ! Dry-Bulb Temperature Range Modifier Schedule Name
  ASHRAETau,                              ! Solar Model Indicator
  ,                                       ! Beam Solar Day Schedule Name
  ,                                       ! Diffuse Solar Day Schedule Name
  0.54,                                   ! ASHRAE Taub {dimensionless}
  1.819;                                  ! ASHRAE Taud {dimensionless}

OS:ComponentData,
  {7d4b0585-a649-4cb9-89a9-5b763359a8d3}, ! Handle
  Component Data 1,                       ! Name
  {23c7fd2f-495e-444a-94e5-400073ff02ed}, ! UUID
  {2601b1f3-89ee-40c3-86b3-4493f0ac9f00}, ! Version UUID
  1366305988,                             ! Creation Timestamp
  1366305988,                             ! Version Timestamp
  {fe650853-1c59-466b-a01e-2f0ac5d95420}; ! Name of Object 1

