
OS:Version,
  {f6c7d657-b2fb-4f7a-9611-0ccaa829101e}, ! Handle
  0.9.3;                                  ! Version Identifier

OS:SizingPeriod:DesignDay,
  {02f06087-46dc-4a4a-a5f7-06b42b628eca}, ! Handle
  Pensacola Regional Ap Ann Clg .4% Condns DP=>MDB, ! Name
  29.2,                                   ! Maximum Dry-Bulb Temperature {C}
  8.2,                                    ! Daily Dry-Bulb Temperature Range {deltaC}
  26.2,                                   ! Humidity Indicating Conditions at Maximum Dry-Bulb {BasedOnField A3}
  100917,                                 ! Barometric Pressure {Pa}
  4,                                      ! Wind Speed {m/s}
  180,                                    ! Wind Direction {deg}
  0,                                      ! Sky Clearness
  0,                                      ! Rain Indicator
  0,                                      ! Snow Indicator
  21,                                     ! Day of Month
  7,                                      ! Month
  SummerDesignDay,                        ! Day Type
  0,                                      ! Daylight Saving Time Indicator
  Dewpoint,                               ! Humidity Indicating Type
  ,                                       ! Humidity Indicating Day Schedule Name
  DefaultMultipliers,                     ! Dry-Bulb Temperature Range Modifier Type
  ,                                       ! Dry-Bulb Temperature Range Modifier Schedule Name
  ASHRAETau,                              ! Solar Model Indicator
  ,                                       ! Beam Solar Day Schedule Name
  ,                                       ! Diffuse Solar Day Schedule Name
  0.531,                                  ! ASHRAE Taub {dimensionless}
  1.89;                                   ! ASHRAE Taud {dimensionless}

OS:ComponentData,
  {308a2e7b-566f-4df2-bf29-5c9f237a1583}, ! Handle
  Component Data 1,                       ! Name
  {7b6243a0-00f7-4458-862f-eb555c335a1f}, ! UUID
  {ac0885b8-1864-4366-9e75-573195824ed6}, ! Version UUID
  1366306905,                             ! Creation Timestamp
  1366306905,                             ! Version Timestamp
  {02f06087-46dc-4a4a-a5f7-06b42b628eca}; ! Name of Object 1

