
OS:Version,
  {3a227e57-f389-495a-be59-fa3e823253d7}, ! Handle
  0.9.3;                                  ! Version Identifier

OS:SizingPeriod:DesignDay,
  {2300879d-d3ca-40f1-b669-291ad5f82bf2}, ! Handle
  West Palm Beach Intl Arpt Ann Clg 1% Condns DP=>MDB, ! Name
  28.6,                                   ! Maximum Dry-Bulb Temperature {C}
  7.3,                                    ! Daily Dry-Bulb Temperature Range {deltaC}
  25.2,                                   ! Humidity Indicating Conditions at Maximum Dry-Bulb {BasedOnField A3}
  101253,                                 ! Barometric Pressure {Pa}
  5.2,                                    ! Wind Speed {m/s}
  130,                                    ! Wind Direction {deg}
  0,                                      ! Sky Clearness
  0,                                      ! Rain Indicator
  0,                                      ! Snow Indicator
  21,                                     ! Day of Month
  8,                                      ! Month
  SummerDesignDay,                        ! Day Type
  0,                                      ! Daylight Saving Time Indicator
  Dewpoint,                               ! Humidity Indicating Type
  ,                                       ! Humidity Indicating Day Schedule Name
  DefaultMultipliers,                     ! Dry-Bulb Temperature Range Modifier Type
  ,                                       ! Dry-Bulb Temperature Range Modifier Schedule Name
  ASHRAETau,                              ! Solar Model Indicator
  ,                                       ! Beam Solar Day Schedule Name
  ,                                       ! Diffuse Solar Day Schedule Name
  0.497,                                  ! ASHRAE Taub {dimensionless}
  2.018;                                  ! ASHRAE Taud {dimensionless}

OS:ComponentData,
  {9faae0f1-cf55-4cff-a2ba-9420e061e146}, ! Handle
  Component Data 1,                       ! Name
  {26bdebc9-940d-4db8-a06e-fa36bd659e2e}, ! UUID
  {4e0260ff-8d94-4fde-bac8-1b12c7635325}, ! Version UUID
  1366306955,                             ! Creation Timestamp
  1366306955,                             ! Version Timestamp
  {2300879d-d3ca-40f1-b669-291ad5f82bf2}; ! Name of Object 1

