
OS:Version,
  {f13fd578-b4bc-44f7-a58e-841446d695e6}, ! Handle
  0.9.3;                                  ! Version Identifier

OS:SizingPeriod:DesignDay,
  {60df9a8f-a097-4a47-9047-a1f701429361}, ! Handle
  Saint Mary S  Awos Ann Hum_n 99% Condns DP=>MCDB, ! Name
  -26.5,                                  ! Maximum Dry-Bulb Temperature {C}
  0,                                      ! Daily Dry-Bulb Temperature Range {deltaC}
  -33,                                    ! Humidity Indicating Conditions at Maximum Dry-Bulb {BasedOnField A3}
  100189,                                 ! Barometric Pressure {Pa}
  2.9,                                    ! Wind Speed {m/s}
  30,                                     ! Wind Direction {deg}
  0,                                      ! Sky Clearness
  0,                                      ! Rain Indicator
  0,                                      ! Snow Indicator
  21,                                     ! Day of Month
  1,                                      ! Month
  WinterDesignDay,                        ! Day Type
  0,                                      ! Daylight Saving Time Indicator
  Dewpoint,                               ! Humidity Indicating Type
  ,                                       ! Humidity Indicating Day Schedule Name
  DefaultMultipliers,                     ! Dry-Bulb Temperature Range Modifier Type
  ,                                       ! Dry-Bulb Temperature Range Modifier Schedule Name
  ASHRAEClearSky;                         ! Solar Model Indicator

