
OS:Version,
  {863d282b-2b59-414a-b7ba-84197dfc16a4}, ! Handle
  0.9.3;                                  ! Version Identifier

OS:SizingPeriod:DesignDay,
  {9351a9c3-42b8-49dd-885b-b61624862e7c}, ! Handle
  Seward Ann Htg Wind 99% Condns WS=>MCDB, ! Name
  -10.3,                                  ! Maximum Dry-Bulb Temperature {C}
  0,                                      ! Daily Dry-Bulb Temperature Range {deltaC}
  -10.3,                                  ! Humidity Indicating Conditions at Maximum Dry-Bulb {BasedOnField A3}
  101109,                                 ! Barometric Pressure {Pa}
  14.9,                                   ! Wind Speed {m/s}
  20,                                     ! Wind Direction {deg}
  0,                                      ! Sky Clearness
  0,                                      ! Rain Indicator
  0,                                      ! Snow Indicator
  21,                                     ! Day of Month
  1,                                      ! Month
  WinterDesignDay,                        ! Day Type
  0,                                      ! Daylight Saving Time Indicator
  Wetbulb,                                ! Humidity Indicating Type
  ,                                       ! Humidity Indicating Day Schedule Name
  DefaultMultipliers,                     ! Dry-Bulb Temperature Range Modifier Type
  ,                                       ! Dry-Bulb Temperature Range Modifier Schedule Name
  ASHRAEClearSky;                         ! Solar Model Indicator

OS:ComponentData,
  {418f14ba-2d26-45d8-bf1c-84bf9227f06b}, ! Handle
  Component Data 1,                       ! Name
  {d11d947c-76d1-4ca2-bb07-92177d39f7d6}, ! UUID
  {39c3fcc4-5331-49c4-919a-40b7911b28a8}, ! Version UUID
  1366305536,                             ! Creation Timestamp
  1366305536,                             ! Version Timestamp
  {9351a9c3-42b8-49dd-885b-b61624862e7c}; ! Name of Object 1

