
OS:Version,
  {ddad14d5-fd23-49f2-b57a-85c7bcae3103}, ! Handle
  0.9.3;                                  ! Version Identifier

OS:SizingPeriod:DesignDay,
  {0c174e2a-da14-4b7c-b054-a5cd61a80f30}, ! Handle
  Oklahoma City Will Rogers Wor Ann Clg 1% Condns Enth=>MDB, ! Name
  32.1,                                   ! Maximum Dry-Bulb Temperature {C}
  11.7,                                   ! Daily Dry-Bulb Temperature Range {deltaC}
  77300,                                  ! Humidity Indicating Conditions at Maximum Dry-Bulb {BasedOnField A3}
  96634,                                  ! Barometric Pressure {Pa}
  5.5,                                    ! Wind Speed {m/s}
  170,                                    ! Wind Direction {deg}
  0,                                      ! Sky Clearness
  0,                                      ! Rain Indicator
  0,                                      ! Snow Indicator
  21,                                     ! Day of Month
  7,                                      ! Month
  SummerDesignDay,                        ! Day Type
  0,                                      ! Daylight Saving Time Indicator
  Enthalpy,                               ! Humidity Indicating Type
  ,                                       ! Humidity Indicating Day Schedule Name
  DefaultMultipliers,                     ! Dry-Bulb Temperature Range Modifier Type
  ,                                       ! Dry-Bulb Temperature Range Modifier Schedule Name
  ASHRAETau,                              ! Solar Model Indicator
  ,                                       ! Beam Solar Day Schedule Name
  ,                                       ! Diffuse Solar Day Schedule Name
  0.426,                                  ! ASHRAE Taub {dimensionless}
  2.214;                                  ! ASHRAE Taud {dimensionless}

OS:ComponentData,
  {22688d54-206e-43a0-b00a-bf77d9987105}, ! Handle
  Component Data 1,                       ! Name
  {c421c623-03b5-4c10-b5f4-c7b350211c8c}, ! UUID
  {d3e6132f-266f-44f8-b096-d1a3430a225c}, ! Version UUID
  1366309928,                             ! Creation Timestamp
  1366309928,                             ! Version Timestamp
  {0c174e2a-da14-4b7c-b054-a5cd61a80f30}; ! Name of Object 1

