
OS:Version,
  {4485bc51-46d8-4436-b151-a723ab16200d}, ! Handle
  0.9.3;                                  ! Version Identifier

OS:SizingPeriod:DesignDay,
  {b5d18bb4-6660-4bc3-b328-50e5a17df1f7}, ! Handle
  Omaha/Eppley Airfield Ann Clg .4% Condns Enth=>MDB, ! Name
  32,                                     ! Maximum Dry-Bulb Temperature {C}
  11,                                     ! Daily Dry-Bulb Temperature Range {deltaC}
  82600,                                  ! Humidity Indicating Conditions at Maximum Dry-Bulb {BasedOnField A3}
  97784,                                  ! Barometric Pressure {Pa}
  6.1,                                    ! Wind Speed {m/s}
  180,                                    ! Wind Direction {deg}
  0,                                      ! Sky Clearness
  0,                                      ! Rain Indicator
  0,                                      ! Snow Indicator
  21,                                     ! Day of Month
  7,                                      ! Month
  SummerDesignDay,                        ! Day Type
  0,                                      ! Daylight Saving Time Indicator
  Enthalpy,                               ! Humidity Indicating Type
  ,                                       ! Humidity Indicating Day Schedule Name
  DefaultMultipliers,                     ! Dry-Bulb Temperature Range Modifier Type
  ,                                       ! Dry-Bulb Temperature Range Modifier Schedule Name
  ASHRAETau,                              ! Solar Model Indicator
  ,                                       ! Beam Solar Day Schedule Name
  ,                                       ! Diffuse Solar Day Schedule Name
  0.421,                                  ! ASHRAE Taub {dimensionless}
  2.196;                                  ! ASHRAE Taud {dimensionless}

OS:ComponentData,
  {4f5150bf-4174-4dee-b8f1-2df5179014b3}, ! Handle
  Component Data 1,                       ! Name
  {f66cd6c9-9935-4cb8-9ca0-d4de7b85bb15}, ! UUID
  {7229544f-6a18-49af-8fbe-7d0b4de21d72}, ! Version UUID
  1366309170,                             ! Creation Timestamp
  1366309170,                             ! Version Timestamp
  {b5d18bb4-6660-4bc3-b328-50e5a17df1f7}; ! Name of Object 1

