
OS:Version,
  {b5f7bc42-5f69-4362-a643-daae61226539}, ! Handle
  0.9.3;                                  ! Version Identifier

OS:SizingPeriod:DesignDay,
  {cd1e36fd-f1e5-4870-8856-4ead31ac1a5b}, ! Handle
  Sand Point Ann Clg 1% Condns DP=>MDB,   ! Name
  13.3,                                   ! Maximum Dry-Bulb Temperature {C}
  3.8,                                    ! Daily Dry-Bulb Temperature Range {deltaC}
  11.3,                                   ! Humidity Indicating Conditions at Maximum Dry-Bulb {BasedOnField A3}
  101241,                                 ! Barometric Pressure {Pa}
  4.2,                                    ! Wind Speed {m/s}
  350,                                    ! Wind Direction {deg}
  0,                                      ! Sky Clearness
  0,                                      ! Rain Indicator
  0,                                      ! Snow Indicator
  21,                                     ! Day of Month
  8,                                      ! Month
  SummerDesignDay,                        ! Day Type
  0,                                      ! Daylight Saving Time Indicator
  Dewpoint,                               ! Humidity Indicating Type
  ,                                       ! Humidity Indicating Day Schedule Name
  DefaultMultipliers,                     ! Dry-Bulb Temperature Range Modifier Type
  ,                                       ! Dry-Bulb Temperature Range Modifier Schedule Name
  ASHRAETau,                              ! Solar Model Indicator
  ,                                       ! Beam Solar Day Schedule Name
  ,                                       ! Diffuse Solar Day Schedule Name
  0.381,                                  ! ASHRAE Taub {dimensionless}
  2.28;                                   ! ASHRAE Taud {dimensionless}

OS:ComponentData,
  {86d904ce-0866-40d9-9d36-c2a686db3b04}, ! Handle
  Component Data 1,                       ! Name
  {0efaccc9-946c-4343-a835-b91de990e29a}, ! UUID
  {d715ef43-0555-4e70-88fa-c5b0faeadc54}, ! Version UUID
  1366305527,                             ! Creation Timestamp
  1366305527,                             ! Version Timestamp
  {cd1e36fd-f1e5-4870-8856-4ead31ac1a5b}; ! Name of Object 1

