
OS:Version,
  {97b4413a-a0a9-46c6-aa19-5e4dcffe1654}, ! Handle
  0.9.3;                                  ! Version Identifier

OS:SizingPeriod:DesignDay,
  {ebc56aa4-6b76-452e-a961-0a28b4c0457b}, ! Handle
  MEDFORD Ann Clg .4% Condns WB=>MDB,     ! Name
  34.4,                                   ! Maximum Dry-Bulb Temperature {C}
  17.9,                                   ! Daily Dry-Bulb Temperature Range {deltaC}
  20.5,                                   ! Humidity Indicating Conditions at Maximum Dry-Bulb {BasedOnField A3}
  96657,                                  ! Barometric Pressure {Pa}
  3.9,                                    ! Wind Speed {m/s}
  290,                                    ! Wind Direction {deg}
  0,                                      ! Sky Clearness
  0,                                      ! Rain Indicator
  0,                                      ! Snow Indicator
  21,                                     ! Day of Month
  7,                                      ! Month
  SummerDesignDay,                        ! Day Type
  0,                                      ! Daylight Saving Time Indicator
  Wetbulb,                                ! Humidity Indicating Type
  ,                                       ! Humidity Indicating Day Schedule Name
  DefaultMultipliers,                     ! Dry-Bulb Temperature Range Modifier Type
  ,                                       ! Dry-Bulb Temperature Range Modifier Schedule Name
  ASHRAETau,                              ! Solar Model Indicator
  ,                                       ! Beam Solar Day Schedule Name
  ,                                       ! Diffuse Solar Day Schedule Name
  0.356,                                  ! ASHRAE Taub {dimensionless}
  2.582;                                  ! ASHRAE Taud {dimensionless}

OS:ComponentData,
  {9a5d7eb5-57d2-4b70-8eaa-8cf35b6cd039}, ! Handle
  Component Data 1,                       ! Name
  {cebfd516-ec72-4d9e-9154-4396724ac77a}, ! UUID
  {dba1ced4-49b6-48ce-bc49-f80eff662d50}, ! Version UUID
  1366310041,                             ! Creation Timestamp
  1366310041,                             ! Version Timestamp
  {ebc56aa4-6b76-452e-a961-0a28b4c0457b}; ! Name of Object 1

