
OS:Version,
  {ae543ef1-6acc-4561-8dfd-411f56c47a2a}, ! Handle
  0.9.3;                                  ! Version Identifier

OS:SizingPeriod:DesignDay,
  {542aef9f-6034-4199-ba2c-9c193400b454}, ! Handle
  Terre Haute Hulman Regional A Ann Htg Wind 99% Condns WS=>MCDB, ! Name
  -1.3,                                   ! Maximum Dry-Bulb Temperature {C}
  0,                                      ! Daily Dry-Bulb Temperature Range {deltaC}
  -1.3,                                   ! Humidity Indicating Conditions at Maximum Dry-Bulb {BasedOnField A3}
  99240,                                  ! Barometric Pressure {Pa}
  10.7,                                   ! Wind Speed {m/s}
  340,                                    ! Wind Direction {deg}
  0,                                      ! Sky Clearness
  0,                                      ! Rain Indicator
  0,                                      ! Snow Indicator
  21,                                     ! Day of Month
  1,                                      ! Month
  WinterDesignDay,                        ! Day Type
  0,                                      ! Daylight Saving Time Indicator
  Wetbulb,                                ! Humidity Indicating Type
  ,                                       ! Humidity Indicating Day Schedule Name
  DefaultMultipliers,                     ! Dry-Bulb Temperature Range Modifier Type
  ,                                       ! Dry-Bulb Temperature Range Modifier Schedule Name
  ASHRAEClearSky;                         ! Solar Model Indicator

OS:ComponentData,
  {7c461948-33f6-44f6-aa6a-01ef727ac4bb}, ! Handle
  Component Data 1,                       ! Name
  {276461fe-a78a-4540-a0f3-d8fad1b19106}, ! UUID
  {1fbee981-b714-4044-8c62-11b5e04e4d94}, ! Version UUID
  1366307491,                             ! Creation Timestamp
  1366307491,                             ! Version Timestamp
  {542aef9f-6034-4199-ba2c-9c193400b454}; ! Name of Object 1

