
OS:Version,
  {360af20e-3437-43ad-8f68-b5601cde62fd}, ! Handle
  0.9.3;                                  ! Version Identifier

OS:SizingPeriod:DesignDay,
  {f224f08b-b929-43ff-8d48-85e8c5888d72}, ! Handle
  Pittsburgh International Ap Ann Clg .4% Condns Enth=>MDB, ! Name
  29.5,                                   ! Maximum Dry-Bulb Temperature {C}
  10.3,                                   ! Daily Dry-Bulb Temperature Range {deltaC}
  73600,                                  ! Humidity Indicating Conditions at Maximum Dry-Bulb {BasedOnField A3}
  97190,                                  ! Barometric Pressure {Pa}
  4.5,                                    ! Wind Speed {m/s}
  220,                                    ! Wind Direction {deg}
  0,                                      ! Sky Clearness
  0,                                      ! Rain Indicator
  0,                                      ! Snow Indicator
  21,                                     ! Day of Month
  7,                                      ! Month
  SummerDesignDay,                        ! Day Type
  0,                                      ! Daylight Saving Time Indicator
  Enthalpy,                               ! Humidity Indicating Type
  ,                                       ! Humidity Indicating Day Schedule Name
  DefaultMultipliers,                     ! Dry-Bulb Temperature Range Modifier Type
  ,                                       ! Dry-Bulb Temperature Range Modifier Schedule Name
  ASHRAETau,                              ! Solar Model Indicator
  ,                                       ! Beam Solar Day Schedule Name
  ,                                       ! Diffuse Solar Day Schedule Name
  0.479,                                  ! ASHRAE Taub {dimensionless}
  1.937;                                  ! ASHRAE Taud {dimensionless}

OS:ComponentData,
  {27ccebdb-04c9-4e67-a6eb-4eeccebb2916}, ! Handle
  Component Data 1,                       ! Name
  {45e1477a-0e7e-43c2-94a7-43d212df5ded}, ! UUID
  {57d2e009-fcae-4bf1-b358-863af4be9b50}, ! Version UUID
  1366310247,                             ! Creation Timestamp
  1366310247,                             ! Version Timestamp
  {f224f08b-b929-43ff-8d48-85e8c5888d72}; ! Name of Object 1

