
OS:Version,
  {087ae7d0-6ffc-4e51-9f62-d9d515088ff5}, ! Handle
  0.9.3;                                  ! Version Identifier

OS:SizingPeriod:DesignDay,
  {c2c23250-59a3-427f-82e5-24e9db4cadd8}, ! Handle
  Tyndall Afb Ann Hum_n 99.6% Condns DP=>MCDB, ! Name
  3.9,                                    ! Maximum Dry-Bulb Temperature {C}
  0,                                      ! Daily Dry-Bulb Temperature Range {deltaC}
  -9.8,                                   ! Humidity Indicating Conditions at Maximum Dry-Bulb {BasedOnField A3}
  101241,                                 ! Barometric Pressure {Pa}
  4,                                      ! Wind Speed {m/s}
  0,                                      ! Wind Direction {deg}
  0,                                      ! Sky Clearness
  0,                                      ! Rain Indicator
  0,                                      ! Snow Indicator
  21,                                     ! Day of Month
  1,                                      ! Month
  WinterDesignDay,                        ! Day Type
  0,                                      ! Daylight Saving Time Indicator
  Dewpoint,                               ! Humidity Indicating Type
  ,                                       ! Humidity Indicating Day Schedule Name
  DefaultMultipliers,                     ! Dry-Bulb Temperature Range Modifier Type
  ,                                       ! Dry-Bulb Temperature Range Modifier Schedule Name
  ASHRAEClearSky;                         ! Solar Model Indicator

OS:ComponentData,
  {11598fab-1f8c-47f0-bf06-5747bfbf7e4f}, ! Handle
  Component Data 1,                       ! Name
  {2fb13930-3665-4cb9-8183-21098bb251ae}, ! UUID
  {44519334-9fa3-41d6-a92a-95af1e85b6ef}, ! Version UUID
  1366306939,                             ! Creation Timestamp
  1366306939,                             ! Version Timestamp
  {c2c23250-59a3-427f-82e5-24e9db4cadd8}; ! Name of Object 1

