
OS:Version,
  {fddb2771-aa92-43de-8900-9296d4d9c3b9}, ! Handle
  0.9.3;                                  ! Version Identifier

OS:SizingPeriod:DesignDay,
  {bb5ae5a2-e83f-4216-9a86-1e4373483dfe}, ! Handle
  MACON Ann Clg 2% Condns WB=>MDB,        ! Name
  30.9,                                   ! Maximum Dry-Bulb Temperature {C}
  11.1,                                   ! Daily Dry-Bulb Temperature Range {deltaC}
  25.2,                                   ! Humidity Indicating Conditions at Maximum Dry-Bulb {BasedOnField A3}
  100011,                                 ! Barometric Pressure {Pa}
  3.6,                                    ! Wind Speed {m/s}
  300,                                    ! Wind Direction {deg}
  0,                                      ! Sky Clearness
  0,                                      ! Rain Indicator
  0,                                      ! Snow Indicator
  21,                                     ! Day of Month
  7,                                      ! Month
  SummerDesignDay,                        ! Day Type
  0,                                      ! Daylight Saving Time Indicator
  Wetbulb,                                ! Humidity Indicating Type
  ,                                       ! Humidity Indicating Day Schedule Name
  DefaultMultipliers,                     ! Dry-Bulb Temperature Range Modifier Type
  ,                                       ! Dry-Bulb Temperature Range Modifier Schedule Name
  ASHRAETau,                              ! Solar Model Indicator
  ,                                       ! Beam Solar Day Schedule Name
  ,                                       ! Diffuse Solar Day Schedule Name
  0.549,                                  ! ASHRAE Taub {dimensionless}
  1.812;                                  ! ASHRAE Taud {dimensionless}

OS:ComponentData,
  {fc8ab2bb-5dc6-45b0-926f-4d1a2c686a90}, ! Handle
  Component Data 1,                       ! Name
  {ba23f1b2-698d-4324-88c3-c129554500ea}, ! UUID
  {07972faf-b18d-4fcf-b91c-7da0cbdd582a}, ! Version UUID
  1366307028,                             ! Creation Timestamp
  1366307028,                             ! Version Timestamp
  {bb5ae5a2-e83f-4216-9a86-1e4373483dfe}; ! Name of Object 1

