
OS:Version,
  {6fb310ab-84e1-45bf-80d0-6662d1c9da68}, ! Handle
  0.9.3;                                  ! Version Identifier

OS:SizingPeriod:DesignDay,
  {259c202f-b4ed-43b5-a3b0-ab134e384125}, ! Handle
  Topeka Municipal Ap Ann Clg 2% Condns DP=>MDB, ! Name
  28.5,                                   ! Maximum Dry-Bulb Temperature {C}
  11.3,                                   ! Daily Dry-Bulb Temperature Range {deltaC}
  22.8,                                   ! Humidity Indicating Conditions at Maximum Dry-Bulb {BasedOnField A3}
  98135,                                  ! Barometric Pressure {Pa}
  4.9,                                    ! Wind Speed {m/s}
  200,                                    ! Wind Direction {deg}
  0,                                      ! Sky Clearness
  0,                                      ! Rain Indicator
  0,                                      ! Snow Indicator
  21,                                     ! Day of Month
  7,                                      ! Month
  SummerDesignDay,                        ! Day Type
  0,                                      ! Daylight Saving Time Indicator
  Dewpoint,                               ! Humidity Indicating Type
  ,                                       ! Humidity Indicating Day Schedule Name
  DefaultMultipliers,                     ! Dry-Bulb Temperature Range Modifier Type
  ,                                       ! Dry-Bulb Temperature Range Modifier Schedule Name
  ASHRAETau,                              ! Solar Model Indicator
  ,                                       ! Beam Solar Day Schedule Name
  ,                                       ! Diffuse Solar Day Schedule Name
  0.434,                                  ! ASHRAE Taub {dimensionless}
  2.183;                                  ! ASHRAE Taud {dimensionless}

OS:ComponentData,
  {95188b50-c231-41ec-b00d-289196178e0d}, ! Handle
  Component Data 1,                       ! Name
  {0520ce77-2d20-4fcb-8fd5-09bf320469c4}, ! UUID
  {fd4d121d-a15a-4d83-a280-466ddc193374}, ! Version UUID
  1366307588,                             ! Creation Timestamp
  1366307588,                             ! Version Timestamp
  {259c202f-b4ed-43b5-a3b0-ab134e384125}; ! Name of Object 1

