
OS:Version,
  {404407c2-79d0-4cc0-94bf-6191f2cdd537}, ! Handle
  0.9.3;                                  ! Version Identifier

OS:SizingPeriod:DesignDay,
  {5109b17a-4a93-4ce2-8ed7-ef281c010d48}, ! Handle
  Savannah Intl Ap Ann Clg 1% Condns DP=>MDB, ! Name
  28.1,                                   ! Maximum Dry-Bulb Temperature {C}
  10,                                     ! Daily Dry-Bulb Temperature Range {deltaC}
  25,                                     ! Humidity Indicating Conditions at Maximum Dry-Bulb {BasedOnField A3}
  101157,                                 ! Barometric Pressure {Pa}
  3.7,                                    ! Wind Speed {m/s}
  290,                                    ! Wind Direction {deg}
  0,                                      ! Sky Clearness
  0,                                      ! Rain Indicator
  0,                                      ! Snow Indicator
  21,                                     ! Day of Month
  7,                                      ! Month
  SummerDesignDay,                        ! Day Type
  0,                                      ! Daylight Saving Time Indicator
  Dewpoint,                               ! Humidity Indicating Type
  ,                                       ! Humidity Indicating Day Schedule Name
  DefaultMultipliers,                     ! Dry-Bulb Temperature Range Modifier Type
  ,                                       ! Dry-Bulb Temperature Range Modifier Schedule Name
  ASHRAETau,                              ! Solar Model Indicator
  ,                                       ! Beam Solar Day Schedule Name
  ,                                       ! Diffuse Solar Day Schedule Name
  0.558,                                  ! ASHRAE Taub {dimensionless}
  1.811;                                  ! ASHRAE Taud {dimensionless}

OS:ComponentData,
  {b3904c86-252e-4215-997e-910a49811351}, ! Handle
  Component Data 1,                       ! Name
  {cc983c4a-51c9-4ac1-a326-0905c3a093fe}, ! UUID
  {436fa0e6-6abd-46a9-aa5e-cc880be65fcd}, ! Version UUID
  1366307057,                             ! Creation Timestamp
  1366307057,                             ! Version Timestamp
  {5109b17a-4a93-4ce2-8ed7-ef281c010d48}; ! Name of Object 1

