
OS:Version,
  {d6d2d5c1-919d-4f38-b5f9-0b4139d30eab}, ! Handle
  0.9.3;                                  ! Version Identifier

OS:SizingPeriod:DesignDay,
  {4549f38f-26ed-43bc-bcea-d3acb92aff58}, ! Handle
  Molokai  Amos Ann Clg .4% Condns Enth=>MDB, ! Name
  28.2,                                   ! Maximum Dry-Bulb Temperature {C}
  7,                                      ! Daily Dry-Bulb Temperature Range {deltaC}
  74100,                                  ! Humidity Indicating Conditions at Maximum Dry-Bulb {BasedOnField A3}
  99690,                                  ! Barometric Pressure {Pa}
  6.1,                                    ! Wind Speed {m/s}
  60,                                     ! Wind Direction {deg}
  0,                                      ! Sky Clearness
  0,                                      ! Rain Indicator
  0,                                      ! Snow Indicator
  21,                                     ! Day of Month
  8,                                      ! Month
  SummerDesignDay,                        ! Day Type
  0,                                      ! Daylight Saving Time Indicator
  Enthalpy,                               ! Humidity Indicating Type
  ,                                       ! Humidity Indicating Day Schedule Name
  DefaultMultipliers,                     ! Dry-Bulb Temperature Range Modifier Type
  ,                                       ! Dry-Bulb Temperature Range Modifier Schedule Name
  ASHRAETau,                              ! Solar Model Indicator
  ,                                       ! Beam Solar Day Schedule Name
  ,                                       ! Diffuse Solar Day Schedule Name
  0.373,                                  ! ASHRAE Taub {dimensionless}
  2.559;                                  ! ASHRAE Taud {dimensionless}

OS:ComponentData,
  {3a843362-17d6-4712-a84e-07544617229c}, ! Handle
  Component Data 1,                       ! Name
  {4d77fa8f-589d-4843-a618-c29bb2dc5c48}, ! UUID
  {f7ee9eed-c33b-488e-8a8a-4d71192a8fbd}, ! Version UUID
  1366307130,                             ! Creation Timestamp
  1366307130,                             ! Version Timestamp
  {4549f38f-26ed-43bc-bcea-d3acb92aff58}; ! Name of Object 1

