
OS:Version,
  {300f2455-5b3f-4484-8a91-556b492437da}, ! Handle
  0.9.3;                                  ! Version Identifier

OS:SizingPeriod:DesignDay,
  {2398721d-69d9-4a84-af3f-7369c0c809ed}, ! Handle
  WICHITA_FALLS Ann Clg 1% Condns WB=>MDB, ! Name
  32.8,                                   ! Maximum Dry-Bulb Temperature {C}
  13,                                     ! Daily Dry-Bulb Temperature Range {deltaC}
  24.8,                                   ! Humidity Indicating Conditions at Maximum Dry-Bulb {BasedOnField A3}
  97609,                                  ! Barometric Pressure {Pa}
  5.5,                                    ! Wind Speed {m/s}
  180,                                    ! Wind Direction {deg}
  0,                                      ! Sky Clearness
  0,                                      ! Rain Indicator
  0,                                      ! Snow Indicator
  21,                                     ! Day of Month
  7,                                      ! Month
  SummerDesignDay,                        ! Day Type
  0,                                      ! Daylight Saving Time Indicator
  Wetbulb,                                ! Humidity Indicating Type
  ,                                       ! Humidity Indicating Day Schedule Name
  DefaultMultipliers,                     ! Dry-Bulb Temperature Range Modifier Type
  ,                                       ! Dry-Bulb Temperature Range Modifier Schedule Name
  ASHRAETau,                              ! Solar Model Indicator
  ,                                       ! Beam Solar Day Schedule Name
  ,                                       ! Diffuse Solar Day Schedule Name
  0.44,                                   ! ASHRAE Taub {dimensionless}
  2.15;                                   ! ASHRAE Taud {dimensionless}

OS:ComponentData,
  {1a763b14-6981-4965-9068-3788f3b98e0f}, ! Handle
  Component Data 1,                       ! Name
  {4092701d-8ea8-422a-a4d5-0b0b7aafd406}, ! UUID
  {2b62de54-5e0a-460f-91a0-b5dbcd196ae7}, ! Version UUID
  1366310928,                             ! Creation Timestamp
  1366310928,                             ! Version Timestamp
  {2398721d-69d9-4a84-af3f-7369c0c809ed}; ! Name of Object 1

