
OS:Version,
  {dfb75342-d3aa-4f7d-aa9d-e25509f3dab8}, ! Handle
  0.9.3;                                  ! Version Identifier

OS:SizingPeriod:DesignDay,
  {fcc71ff6-963a-4b3d-a64e-591f6fb72ca1}, ! Handle
  Yakutat Ann Clg 1% Condns DB=>MWB,      ! Name
  17.8,                                   ! Maximum Dry-Bulb Temperature {C}
  5.8,                                    ! Daily Dry-Bulb Temperature Range {deltaC}
  12.9,                                   ! Humidity Indicating Conditions at Maximum Dry-Bulb {BasedOnField A3}
  101217,                                 ! Barometric Pressure {Pa}
  3.4,                                    ! Wind Speed {m/s}
  320,                                    ! Wind Direction {deg}
  0,                                      ! Sky Clearness
  0,                                      ! Rain Indicator
  0,                                      ! Snow Indicator
  21,                                     ! Day of Month
  7,                                      ! Month
  SummerDesignDay,                        ! Day Type
  0,                                      ! Daylight Saving Time Indicator
  Wetbulb,                                ! Humidity Indicating Type
  ,                                       ! Humidity Indicating Day Schedule Name
  DefaultMultipliers,                     ! Dry-Bulb Temperature Range Modifier Type
  ,                                       ! Dry-Bulb Temperature Range Modifier Schedule Name
  ASHRAETau,                              ! Solar Model Indicator
  ,                                       ! Beam Solar Day Schedule Name
  ,                                       ! Diffuse Solar Day Schedule Name
  0.371,                                  ! ASHRAE Taub {dimensionless}
  2.194;                                  ! ASHRAE Taud {dimensionless}

OS:ComponentData,
  {254d4852-f44c-4929-8153-ee7ea3ad455f}, ! Handle
  Component Data 1,                       ! Name
  {4f56b6e6-b0cc-4206-bbb1-a0969ba43d95}, ! UUID
  {13f1b374-7d17-4000-a504-9e05467f4787}, ! Version UUID
  1366305623,                             ! Creation Timestamp
  1366305623,                             ! Version Timestamp
  {fcc71ff6-963a-4b3d-a64e-591f6fb72ca1}; ! Name of Object 1

