
OS:Version,
  {5549c9de-db99-45d1-93f7-0d3f9633e7c6}, ! Handle
  0.9.3;                                  ! Version Identifier

OS:SizingPeriod:DesignDay,
  {44e3c60f-bd75-49d3-8d06-77452ba96407}, ! Handle
  Mcalester Municipal Ap Ann Clg .4% Condns WB=>MDB, ! Name
  32.9,                                   ! Maximum Dry-Bulb Temperature {C}
  11.2,                                   ! Daily Dry-Bulb Temperature Range {deltaC}
  26.2,                                   ! Humidity Indicating Conditions at Maximum Dry-Bulb {BasedOnField A3}
  98569,                                  ! Barometric Pressure {Pa}
  3.9,                                    ! Wind Speed {m/s}
  200,                                    ! Wind Direction {deg}
  0,                                      ! Sky Clearness
  0,                                      ! Rain Indicator
  0,                                      ! Snow Indicator
  21,                                     ! Day of Month
  7,                                      ! Month
  SummerDesignDay,                        ! Day Type
  0,                                      ! Daylight Saving Time Indicator
  Wetbulb,                                ! Humidity Indicating Type
  ,                                       ! Humidity Indicating Day Schedule Name
  DefaultMultipliers,                     ! Dry-Bulb Temperature Range Modifier Type
  ,                                       ! Dry-Bulb Temperature Range Modifier Schedule Name
  ASHRAETau,                              ! Solar Model Indicator
  ,                                       ! Beam Solar Day Schedule Name
  ,                                       ! Diffuse Solar Day Schedule Name
  0.459,                                  ! ASHRAE Taub {dimensionless}
  2.091;                                  ! ASHRAE Taud {dimensionless}

OS:ComponentData,
  {87aac048-c6fb-4ba8-a929-27d21abdb824}, ! Handle
  Component Data 1,                       ! Name
  {b7881178-3444-423d-b963-6d8a9d2b2794}, ! UUID
  {f1f9ab5a-0d4e-4e47-a67b-ef857d4138be}, ! Version UUID
  1366309908,                             ! Creation Timestamp
  1366309908,                             ! Version Timestamp
  {44e3c60f-bd75-49d3-8d06-77452ba96407}; ! Name of Object 1

