
OS:Version,
  {1ecc1565-687a-42fe-915e-0b5125bc9404}, ! Handle
  0.9.3;                                  ! Version Identifier

OS:SizingPeriod:DesignDay,
  {e02119ed-4f37-41e0-8b46-e6080a618087}, ! Handle
  New Orleans Lakefront Ap Ann Clg 1% Condns DP=>MDB, ! Name
  29.4,                                   ! Maximum Dry-Bulb Temperature {C}
  6.6,                                    ! Daily Dry-Bulb Temperature Range {deltaC}
  25.9,                                   ! Humidity Indicating Conditions at Maximum Dry-Bulb {BasedOnField A3}
  101289,                                 ! Barometric Pressure {Pa}
  3.8,                                    ! Wind Speed {m/s}
  320,                                    ! Wind Direction {deg}
  0,                                      ! Sky Clearness
  0,                                      ! Rain Indicator
  0,                                      ! Snow Indicator
  21,                                     ! Day of Month
  8,                                      ! Month
  SummerDesignDay,                        ! Day Type
  0,                                      ! Daylight Saving Time Indicator
  Dewpoint,                               ! Humidity Indicating Type
  ,                                       ! Humidity Indicating Day Schedule Name
  DefaultMultipliers,                     ! Dry-Bulb Temperature Range Modifier Type
  ,                                       ! Dry-Bulb Temperature Range Modifier Schedule Name
  ASHRAETau,                              ! Solar Model Indicator
  ,                                       ! Beam Solar Day Schedule Name
  ,                                       ! Diffuse Solar Day Schedule Name
  0.551,                                  ! ASHRAE Taub {dimensionless}
  1.829;                                  ! ASHRAE Taud {dimensionless}

