
OS:Version,
  {ad84bb28-f2ba-4dfb-8b20-d29346a7180c}, ! Handle
  0.9.3;                                  ! Version Identifier

OS:SizingPeriod:DesignDay,
  {a40ff783-f6fc-4b69-8c86-bf23cffccb05}, ! Handle
  Walla Walla City County Ap Ann Clg 2% Condns Enth=>MDB, ! Name
  31.1,                                   ! Maximum Dry-Bulb Temperature {C}
  15.1,                                   ! Daily Dry-Bulb Temperature Range {deltaC}
  53600,                                  ! Humidity Indicating Conditions at Maximum Dry-Bulb {BasedOnField A3}
  97132,                                  ! Barometric Pressure {Pa}
  3.8,                                    ! Wind Speed {m/s}
  240,                                    ! Wind Direction {deg}
  0,                                      ! Sky Clearness
  0,                                      ! Rain Indicator
  0,                                      ! Snow Indicator
  21,                                     ! Day of Month
  7,                                      ! Month
  SummerDesignDay,                        ! Day Type
  0,                                      ! Daylight Saving Time Indicator
  Enthalpy,                               ! Humidity Indicating Type
  ,                                       ! Humidity Indicating Day Schedule Name
  DefaultMultipliers,                     ! Dry-Bulb Temperature Range Modifier Type
  ,                                       ! Dry-Bulb Temperature Range Modifier Schedule Name
  ASHRAETau,                              ! Solar Model Indicator
  ,                                       ! Beam Solar Day Schedule Name
  ,                                       ! Diffuse Solar Day Schedule Name
  0.389,                                  ! ASHRAE Taub {dimensionless}
  2.256;                                  ! ASHRAE Taud {dimensionless}

OS:ComponentData,
  {067dd17f-6bb4-4f02-805d-cff1506bf87e}, ! Handle
  Component Data 1,                       ! Name
  {fb696766-3acb-4bf8-a435-ba65ba419260}, ! UUID
  {29de7ddc-d1df-44a1-9424-736d0a32e877}, ! Version UUID
  1366311422,                             ! Creation Timestamp
  1366311422,                             ! Version Timestamp
  {a40ff783-f6fc-4b69-8c86-bf23cffccb05}; ! Name of Object 1

