
OS:Version,
  {33841514-a446-4bd0-86d7-8feaab144c06}, ! Handle
  0.9.3;                                  ! Version Identifier

OS:SizingPeriod:DesignDay,
  {fa34965a-cc1a-4606-b970-324eadd71c32}, ! Handle
  Soldotna Ann Clg 2% Condns Enth=>MDB,   ! Name
  17.3,                                   ! Maximum Dry-Bulb Temperature {C}
  8.4,                                    ! Daily Dry-Bulb Temperature Range {deltaC}
  36900,                                  ! Humidity Indicating Conditions at Maximum Dry-Bulb {BasedOnField A3}
  100917,                                 ! Barometric Pressure {Pa}
  2.9,                                    ! Wind Speed {m/s}
  280,                                    ! Wind Direction {deg}
  0,                                      ! Sky Clearness
  0,                                      ! Rain Indicator
  0,                                      ! Snow Indicator
  21,                                     ! Day of Month
  7,                                      ! Month
  SummerDesignDay,                        ! Day Type
  0,                                      ! Daylight Saving Time Indicator
  Enthalpy,                               ! Humidity Indicating Type
  ,                                       ! Humidity Indicating Day Schedule Name
  DefaultMultipliers,                     ! Dry-Bulb Temperature Range Modifier Type
  ,                                       ! Dry-Bulb Temperature Range Modifier Schedule Name
  ASHRAETau,                              ! Solar Model Indicator
  ,                                       ! Beam Solar Day Schedule Name
  ,                                       ! Diffuse Solar Day Schedule Name
  0.376,                                  ! ASHRAE Taub {dimensionless}
  2.229;                                  ! ASHRAE Taud {dimensionless}

OS:ComponentData,
  {678eef69-7ec9-4931-b2b2-588b830a4cab}, ! Handle
  Component Data 1,                       ! Name
  {e53f8211-7a66-4ade-84eb-88371a8685da}, ! UUID
  {22598ffb-ac64-4ffe-82c8-8deb6d736c2d}, ! Version UUID
  1366305570,                             ! Creation Timestamp
  1366305570,                             ! Version Timestamp
  {fa34965a-cc1a-4606-b970-324eadd71c32}; ! Name of Object 1

