
OS:Version,
  {05b235d5-d321-4a7b-b8b9-1fbda55dd1ab}, ! Handle
  0.9.3;                                  ! Version Identifier

OS:SizingPeriod:DesignDay,
  {e3a10143-4e85-47a7-8dc4-be842b147052}, ! Handle
  SAINT_CLOUD Ann Clg 1% Condns Enth=>MDB, ! Name
  29,                                     ! Maximum Dry-Bulb Temperature {C}
  12.3,                                   ! Daily Dry-Bulb Temperature Range {deltaC}
  72000,                                  ! Humidity Indicating Conditions at Maximum Dry-Bulb {BasedOnField A3}
  97621,                                  ! Barometric Pressure {Pa}
  5.1,                                    ! Wind Speed {m/s}
  180,                                    ! Wind Direction {deg}
  0,                                      ! Sky Clearness
  0,                                      ! Rain Indicator
  0,                                      ! Snow Indicator
  21,                                     ! Day of Month
  7,                                      ! Month
  SummerDesignDay,                        ! Day Type
  0,                                      ! Daylight Saving Time Indicator
  Enthalpy,                               ! Humidity Indicating Type
  ,                                       ! Humidity Indicating Day Schedule Name
  DefaultMultipliers,                     ! Dry-Bulb Temperature Range Modifier Type
  ,                                       ! Dry-Bulb Temperature Range Modifier Schedule Name
  ASHRAETau,                              ! Solar Model Indicator
  ,                                       ! Beam Solar Day Schedule Name
  ,                                       ! Diffuse Solar Day Schedule Name
  0.405,                                  ! ASHRAE Taub {dimensionless}
  2.216;                                  ! ASHRAE Taud {dimensionless}

OS:ComponentData,
  {182226da-7f00-4f87-86a7-eac9bcee28e2}, ! Handle
  Component Data 1,                       ! Name
  {a79e2761-6eda-4cc6-ad4d-ce5606b0c05a}, ! UUID
  {215ec0a4-e6e2-4953-9b8c-e343756b9373}, ! Version UUID
  1366308412,                             ! Creation Timestamp
  1366308412,                             ! Version Timestamp
  {e3a10143-4e85-47a7-8dc4-be842b147052}; ! Name of Object 1

