
OS:Version,
  {f5924812-0817-4fcf-93c9-e81427a0b615}, ! Handle
  0.9.3;                                  ! Version Identifier

OS:SizingPeriod:DesignDay,
  {bc7dcc55-3322-4de5-8f06-dbe38052e3aa}, ! Handle
  Sioux Falls Ann Clg .4% Condns Enth=>MDB, ! Name
  30.9,                                   ! Maximum Dry-Bulb Temperature {C}
  11.5,                                   ! Daily Dry-Bulb Temperature Range {deltaC}
  79500,                                  ! Humidity Indicating Conditions at Maximum Dry-Bulb {BasedOnField A3}
  96207,                                  ! Barometric Pressure {Pa}
  6.5,                                    ! Wind Speed {m/s}
  180,                                    ! Wind Direction {deg}
  0,                                      ! Sky Clearness
  0,                                      ! Rain Indicator
  0,                                      ! Snow Indicator
  21,                                     ! Day of Month
  7,                                      ! Month
  SummerDesignDay,                        ! Day Type
  0,                                      ! Daylight Saving Time Indicator
  Enthalpy,                               ! Humidity Indicating Type
  ,                                       ! Humidity Indicating Day Schedule Name
  DefaultMultipliers,                     ! Dry-Bulb Temperature Range Modifier Type
  ,                                       ! Dry-Bulb Temperature Range Modifier Schedule Name
  ASHRAETau,                              ! Solar Model Indicator
  ,                                       ! Beam Solar Day Schedule Name
  ,                                       ! Diffuse Solar Day Schedule Name
  0.392,                                  ! ASHRAE Taub {dimensionless}
  2.283;                                  ! ASHRAE Taud {dimensionless}

OS:ComponentData,
  {6408f987-e4fa-43d1-915c-72f16ef9b478}, ! Handle
  Component Data 1,                       ! Name
  {1aea7e47-215d-402d-bde6-72421deba558}, ! UUID
  {dffae88d-7bad-44cb-954c-37f999da1b70}, ! Version UUID
  1366310456,                             ! Creation Timestamp
  1366310456,                             ! Version Timestamp
  {bc7dcc55-3322-4de5-8f06-dbe38052e3aa}; ! Name of Object 1

