
OS:Version,
  {50859b87-4c69-4848-94b3-b0f5bd2860c7}, ! Handle
  0.9.3;                                  ! Version Identifier

OS:SizingPeriod:DesignDay,
  {6269e724-aff7-49bf-bcec-15439e51a28e}, ! Handle
  Mosinee Central Wi Ann Clg 2% Condns DB=>MWB, ! Name
  27.4,                                   ! Maximum Dry-Bulb Temperature {C}
  11.6,                                   ! Daily Dry-Bulb Temperature Range {deltaC}
  20.1,                                   ! Humidity Indicating Conditions at Maximum Dry-Bulb {BasedOnField A3}
  96738,                                  ! Barometric Pressure {Pa}
  4.6,                                    ! Wind Speed {m/s}
  220,                                    ! Wind Direction {deg}
  0,                                      ! Sky Clearness
  0,                                      ! Rain Indicator
  0,                                      ! Snow Indicator
  21,                                     ! Day of Month
  7,                                      ! Month
  SummerDesignDay,                        ! Day Type
  0,                                      ! Daylight Saving Time Indicator
  Wetbulb,                                ! Humidity Indicating Type
  ,                                       ! Humidity Indicating Day Schedule Name
  DefaultMultipliers,                     ! Dry-Bulb Temperature Range Modifier Type
  ,                                       ! Dry-Bulb Temperature Range Modifier Schedule Name
  ASHRAETau,                              ! Solar Model Indicator
  ,                                       ! Beam Solar Day Schedule Name
  ,                                       ! Diffuse Solar Day Schedule Name
  0.415,                                  ! ASHRAE Taub {dimensionless}
  2.153;                                  ! ASHRAE Taud {dimensionless}

