
OS:Version,
  {dd6c4d21-c096-4f93-b46e-62dbcd7b192e}, ! Handle
  0.9.3;                                  ! Version Identifier

OS:SizingPeriod:DesignDay,
  {c3cd7e0b-47bc-4beb-bff3-265b26a952c2}, ! Handle
  Naval Air Station Ann Clg 2% Condns Enth=>MDB, ! Name
  24.7,                                   ! Maximum Dry-Bulb Temperature {C}
  10.4,                                   ! Daily Dry-Bulb Temperature Range {deltaC}
  60700,                                  ! Humidity Indicating Conditions at Maximum Dry-Bulb {BasedOnField A3}
  101073,                                 ! Barometric Pressure {Pa}
  4,                                      ! Wind Speed {m/s}
  200,                                    ! Wind Direction {deg}
  0,                                      ! Sky Clearness
  0,                                      ! Rain Indicator
  0,                                      ! Snow Indicator
  21,                                     ! Day of Month
  7,                                      ! Month
  SummerDesignDay,                        ! Day Type
  0,                                      ! Daylight Saving Time Indicator
  Enthalpy,                               ! Humidity Indicating Type
  ,                                       ! Humidity Indicating Day Schedule Name
  DefaultMultipliers,                     ! Dry-Bulb Temperature Range Modifier Type
  ,                                       ! Dry-Bulb Temperature Range Modifier Schedule Name
  ASHRAETau,                              ! Solar Model Indicator
  ,                                       ! Beam Solar Day Schedule Name
  ,                                       ! Diffuse Solar Day Schedule Name
  0.473,                                  ! ASHRAE Taub {dimensionless}
  1.986;                                  ! ASHRAE Taud {dimensionless}

OS:ComponentData,
  {6c7799e8-a463-4884-a023-436b6f92f3c4}, ! Handle
  Component Data 1,                       ! Name
  {788d1018-c241-4e71-913d-0188e23a3172}, ! UUID
  {9e08455e-5445-402a-9e66-461f4d3ef492}, ! Version UUID
  1366307884,                             ! Creation Timestamp
  1366307884,                             ! Version Timestamp
  {c3cd7e0b-47bc-4beb-bff3-265b26a952c2}; ! Name of Object 1

