
OS:Version,
  {06fe1adf-1dc5-42b5-a660-04c041f98772}, ! Handle
  0.9.3;                                  ! Version Identifier

OS:SizingPeriod:DesignDay,
  {18a550ea-2cc1-4317-bb3b-50a48489fadb}, ! Handle
  NORFOLK Ann Clg .4% Condns Enth=>MDB,   ! Name
  31.8,                                   ! Maximum Dry-Bulb Temperature {C}
  11.9,                                   ! Daily Dry-Bulb Temperature Range {deltaC}
  80000,                                  ! Humidity Indicating Conditions at Maximum Dry-Bulb {BasedOnField A3}
  95793,                                  ! Barometric Pressure {Pa}
  6.5,                                    ! Wind Speed {m/s}
  190,                                    ! Wind Direction {deg}
  0,                                      ! Sky Clearness
  0,                                      ! Rain Indicator
  0,                                      ! Snow Indicator
  21,                                     ! Day of Month
  7,                                      ! Month
  SummerDesignDay,                        ! Day Type
  0,                                      ! Daylight Saving Time Indicator
  Enthalpy,                               ! Humidity Indicating Type
  ,                                       ! Humidity Indicating Day Schedule Name
  DefaultMultipliers,                     ! Dry-Bulb Temperature Range Modifier Type
  ,                                       ! Dry-Bulb Temperature Range Modifier Schedule Name
  ASHRAETau,                              ! Solar Model Indicator
  ,                                       ! Beam Solar Day Schedule Name
  ,                                       ! Diffuse Solar Day Schedule Name
  0.402,                                  ! ASHRAE Taub {dimensionless}
  2.247;                                  ! ASHRAE Taud {dimensionless}

OS:ComponentData,
  {ff32f405-e3e0-43b8-a54c-28459946cf81}, ! Handle
  Component Data 1,                       ! Name
  {4a71788d-5b29-4afc-b702-0ea9190642e6}, ! UUID
  {6eb695b6-41b8-41c6-95f0-822eb23223c1}, ! Version UUID
  1366309154,                             ! Creation Timestamp
  1366309154,                             ! Version Timestamp
  {18a550ea-2cc1-4317-bb3b-50a48489fadb}; ! Name of Object 1

