
OS:Version,
  {a749fee7-c499-4343-924f-855b06a3d8a1}, ! Handle
  0.9.3;                                  ! Version Identifier

OS:SizingPeriod:DesignDay,
  {55c3db8a-cd91-4768-8155-3f8c37899bf6}, ! Handle
  Rockport Aransas Co Ann Htg Wind 99% Condns WS=>MCDB, ! Name
  8.3,                                    ! Maximum Dry-Bulb Temperature {C}
  0,                                      ! Daily Dry-Bulb Temperature Range {deltaC}
  8.3,                                    ! Humidity Indicating Conditions at Maximum Dry-Bulb {BasedOnField A3}
  101229,                                 ! Barometric Pressure {Pa}
  10.6,                                   ! Wind Speed {m/s}
  350,                                    ! Wind Direction {deg}
  0,                                      ! Sky Clearness
  0,                                      ! Rain Indicator
  0,                                      ! Snow Indicator
  21,                                     ! Day of Month
  12,                                     ! Month
  WinterDesignDay,                        ! Day Type
  0,                                      ! Daylight Saving Time Indicator
  Wetbulb,                                ! Humidity Indicating Type
  ,                                       ! Humidity Indicating Day Schedule Name
  DefaultMultipliers,                     ! Dry-Bulb Temperature Range Modifier Type
  ,                                       ! Dry-Bulb Temperature Range Modifier Schedule Name
  ASHRAEClearSky;                         ! Solar Model Indicator

OS:ComponentData,
  {28363a62-d231-4bf6-b102-d4d2884dc159}, ! Handle
  Component Data 1,                       ! Name
  {6d78cf18-2649-4557-a82a-b8e0e79ba428}, ! UUID
  {4aad7d37-474e-4455-afaf-21725512c0aa}, ! Version UUID
  1366310863,                             ! Creation Timestamp
  1366310863,                             ! Version Timestamp
  {55c3db8a-cd91-4768-8155-3f8c37899bf6}; ! Name of Object 1

