
OS:Version,
  {01a7788e-66a7-4890-82d8-205dc897ead8}, ! Handle
  0.9.3;                                  ! Version Identifier

OS:SizingPeriod:DesignDay,
  {4668dfd7-d9d3-4bf3-8ab5-054b90d89a5f}, ! Handle
  MOLINE Ann Clg 2% Condns WB=>MDB,       ! Name
  29.1,                                   ! Maximum Dry-Bulb Temperature {C}
  11.1,                                   ! Daily Dry-Bulb Temperature Range {deltaC}
  24.3,                                   ! Humidity Indicating Conditions at Maximum Dry-Bulb {BasedOnField A3}
  99169,                                  ! Barometric Pressure {Pa}
  4.9,                                    ! Wind Speed {m/s}
  210,                                    ! Wind Direction {deg}
  0,                                      ! Sky Clearness
  0,                                      ! Rain Indicator
  0,                                      ! Snow Indicator
  21,                                     ! Day of Month
  7,                                      ! Month
  SummerDesignDay,                        ! Day Type
  0,                                      ! Daylight Saving Time Indicator
  Wetbulb,                                ! Humidity Indicating Type
  ,                                       ! Humidity Indicating Day Schedule Name
  DefaultMultipliers,                     ! Dry-Bulb Temperature Range Modifier Type
  ,                                       ! Dry-Bulb Temperature Range Modifier Schedule Name
  ASHRAETau,                              ! Solar Model Indicator
  ,                                       ! Beam Solar Day Schedule Name
  ,                                       ! Diffuse Solar Day Schedule Name
  0.449,                                  ! ASHRAE Taub {dimensionless}
  2.068;                                  ! ASHRAE Taud {dimensionless}

OS:ComponentData,
  {ad930b76-56e6-4f63-b14b-5a2f507809cb}, ! Handle
  Component Data 1,                       ! Name
  {96faa4cc-2838-4e63-bcf0-d2256f8eea58}, ! UUID
  {9b6a078f-a8e5-4d28-a538-8cbaac605761}, ! Version UUID
  1366307373,                             ! Creation Timestamp
  1366307373,                             ! Version Timestamp
  {4668dfd7-d9d3-4bf3-8ab5-054b90d89a5f}; ! Name of Object 1

