
OS:Version,
  {1f7de2c4-256f-4061-9a83-bb9c3f3ef2c0}, ! Handle
  0.9.3;                                  ! Version Identifier

OS:SizingPeriod:DesignDay,
  {c383c4c4-5cb3-42bc-bfe2-c6e67320a8eb}, ! Handle
  WACO Ann Htg 99% Condns DB,             ! Name
  -2.5,                                   ! Maximum Dry-Bulb Temperature {C}
  0,                                      ! Daily Dry-Bulb Temperature Range {deltaC}
  -2.5,                                   ! Humidity Indicating Conditions at Maximum Dry-Bulb {BasedOnField A3}
  99477,                                  ! Barometric Pressure {Pa}
  5.1,                                    ! Wind Speed {m/s}
  0,                                      ! Wind Direction {deg}
  0,                                      ! Sky Clearness
  0,                                      ! Rain Indicator
  0,                                      ! Snow Indicator
  21,                                     ! Day of Month
  1,                                      ! Month
  WinterDesignDay,                        ! Day Type
  0,                                      ! Daylight Saving Time Indicator
  Wetbulb,                                ! Humidity Indicating Type
  ,                                       ! Humidity Indicating Day Schedule Name
  DefaultMultipliers,                     ! Dry-Bulb Temperature Range Modifier Type
  ,                                       ! Dry-Bulb Temperature Range Modifier Schedule Name
  ASHRAEClearSky;                         ! Solar Model Indicator

OS:ComponentData,
  {f96fda6f-1758-4a24-a969-bc84a4f60ea9}, ! Handle
  Component Data 1,                       ! Name
  {256d4449-a9b4-4a03-bfbf-115357052b4e}, ! UUID
  {5f02a0a5-84ce-4a75-b439-06aa668dfc42}, ! Version UUID
  1366310915,                             ! Creation Timestamp
  1366310915,                             ! Version Timestamp
  {c383c4c4-5cb3-42bc-bfe2-c6e67320a8eb}; ! Name of Object 1

