
OS:Version,
  {c827e728-fd73-4cfa-8c44-a313735a6c44}, ! Handle
  0.9.3;                                  ! Version Identifier

OS:SizingPeriod:DesignDay,
  {9f0cc89d-c2de-4567-aa22-66d50f85003c}, ! Handle
  Oxnard/Point Mugu NF Ann Clg .4% Condns WB=>MDB, ! Name
  24.5,                                   ! Maximum Dry-Bulb Temperature {C}
  7.8,                                    ! Daily Dry-Bulb Temperature Range {deltaC}
  21.2,                                   ! Humidity Indicating Conditions at Maximum Dry-Bulb {BasedOnField A3}
  101289,                                 ! Barometric Pressure {Pa}
  5.2,                                    ! Wind Speed {m/s}
  50,                                     ! Wind Direction {deg}
  0,                                      ! Sky Clearness
  0,                                      ! Rain Indicator
  0,                                      ! Snow Indicator
  21,                                     ! Day of Month
  8,                                      ! Month
  SummerDesignDay,                        ! Day Type
  0,                                      ! Daylight Saving Time Indicator
  Wetbulb,                                ! Humidity Indicating Type
  ,                                       ! Humidity Indicating Day Schedule Name
  DefaultMultipliers,                     ! Dry-Bulb Temperature Range Modifier Type
  ,                                       ! Dry-Bulb Temperature Range Modifier Schedule Name
  ASHRAETau,                              ! Solar Model Indicator
  ,                                       ! Beam Solar Day Schedule Name
  ,                                       ! Diffuse Solar Day Schedule Name
  0.425,                                  ! ASHRAE Taub {dimensionless}
  2.2;                                    ! ASHRAE Taud {dimensionless}

OS:ComponentData,
  {526443ee-884f-42ab-9d68-97f9899d6e06}, ! Handle
  Component Data 1,                       ! Name
  {9a4e6b56-274b-43a9-b652-a7112038158c}, ! UUID
  {3e5e131f-2ea2-494f-8d53-7e26f649c785}, ! Version UUID
  1366306536,                             ! Creation Timestamp
  1366306536,                             ! Version Timestamp
  {9f0cc89d-c2de-4567-aa22-66d50f85003c}; ! Name of Object 1

