
OS:Version,
  {548cab03-aded-4041-a5a2-55195937a2e0}, ! Handle
  0.9.3;                                  ! Version Identifier

OS:SizingPeriod:DesignDay,
  {bec08425-b087-4432-a33e-7ff1d0485127}, ! Handle
  Marfa Ap Ann Clg 1% Condns WB=>MDB,     ! Name
  26.9,                                   ! Maximum Dry-Bulb Temperature {C}
  17.6,                                   ! Daily Dry-Bulb Temperature Range {deltaC}
  19.1,                                   ! Humidity Indicating Conditions at Maximum Dry-Bulb {BasedOnField A3}
  84836,                                  ! Barometric Pressure {Pa}
  4.3,                                    ! Wind Speed {m/s}
  180,                                    ! Wind Direction {deg}
  0,                                      ! Sky Clearness
  0,                                      ! Rain Indicator
  0,                                      ! Snow Indicator
  21,                                     ! Day of Month
  6,                                      ! Month
  SummerDesignDay,                        ! Day Type
  0,                                      ! Daylight Saving Time Indicator
  Wetbulb,                                ! Humidity Indicating Type
  ,                                       ! Humidity Indicating Day Schedule Name
  DefaultMultipliers,                     ! Dry-Bulb Temperature Range Modifier Type
  ,                                       ! Dry-Bulb Temperature Range Modifier Schedule Name
  ASHRAETau,                              ! Solar Model Indicator
  ,                                       ! Beam Solar Day Schedule Name
  ,                                       ! Diffuse Solar Day Schedule Name
  0.481,                                  ! ASHRAE Taub {dimensionless}
  1.819;                                  ! ASHRAE Taud {dimensionless}

