
OS:Version,
  {291aa28d-94b6-401f-8856-adafa8d56bc4}, ! Handle
  0.9.3;                                  ! Version Identifier

OS:SizingPeriod:DesignDay,
  {c7259d92-2e95-4e99-bf07-5b4f54deae77}, ! Handle
  Russell Municipal Ap Ann Clg 2% Condns WB=>MDB, ! Name
  31.2,                                   ! Maximum Dry-Bulb Temperature {C}
  13.4,                                   ! Daily Dry-Bulb Temperature Range {deltaC}
  23.3,                                   ! Humidity Indicating Conditions at Maximum Dry-Bulb {BasedOnField A3}
  94708,                                  ! Barometric Pressure {Pa}
  7.9,                                    ! Wind Speed {m/s}
  180,                                    ! Wind Direction {deg}
  0,                                      ! Sky Clearness
  0,                                      ! Rain Indicator
  0,                                      ! Snow Indicator
  21,                                     ! Day of Month
  7,                                      ! Month
  SummerDesignDay,                        ! Day Type
  0,                                      ! Daylight Saving Time Indicator
  Wetbulb,                                ! Humidity Indicating Type
  ,                                       ! Humidity Indicating Day Schedule Name
  DefaultMultipliers,                     ! Dry-Bulb Temperature Range Modifier Type
  ,                                       ! Dry-Bulb Temperature Range Modifier Schedule Name
  ASHRAETau,                              ! Solar Model Indicator
  ,                                       ! Beam Solar Day Schedule Name
  ,                                       ! Diffuse Solar Day Schedule Name
  0.427,                                  ! ASHRAE Taub {dimensionless}
  2.131;                                  ! ASHRAE Taud {dimensionless}

OS:ComponentData,
  {af9afc1a-f78a-4a89-ac09-a8b0ecf4eeb5}, ! Handle
  Component Data 1,                       ! Name
  {a191be10-a8c1-422c-9eee-a9c9d063009d}, ! UUID
  {4c15f5b3-0857-4f54-98a2-b4c5c0f71d0d}, ! Version UUID
  1366307572,                             ! Creation Timestamp
  1366307572,                             ! Version Timestamp
  {c7259d92-2e95-4e99-bf07-5b4f54deae77}; ! Name of Object 1

