
OS:Version,
  {3e84b1d7-fdcf-4ee9-b359-366a7c4300e9}, ! Handle
  0.9.3;                                  ! Version Identifier

OS:SizingPeriod:DesignDay,
  {9e7ba7b9-4e8d-439a-a441-bafee738dd22}, ! Handle
  Minot Faa Ap Ann Clg 2% Condns DB=>MWB, ! Name
  29.1,                                   ! Maximum Dry-Bulb Temperature {C}
  12.2,                                   ! Daily Dry-Bulb Temperature Range {deltaC}
  19,                                     ! Humidity Indicating Conditions at Maximum Dry-Bulb {BasedOnField A3}
  95198,                                  ! Barometric Pressure {Pa}
  5.8,                                    ! Wind Speed {m/s}
  160,                                    ! Wind Direction {deg}
  0,                                      ! Sky Clearness
  0,                                      ! Rain Indicator
  0,                                      ! Snow Indicator
  21,                                     ! Day of Month
  7,                                      ! Month
  SummerDesignDay,                        ! Day Type
  0,                                      ! Daylight Saving Time Indicator
  Wetbulb,                                ! Humidity Indicating Type
  ,                                       ! Humidity Indicating Day Schedule Name
  DefaultMultipliers,                     ! Dry-Bulb Temperature Range Modifier Type
  ,                                       ! Dry-Bulb Temperature Range Modifier Schedule Name
  ASHRAETau,                              ! Solar Model Indicator
  ,                                       ! Beam Solar Day Schedule Name
  ,                                       ! Diffuse Solar Day Schedule Name
  0.386,                                  ! ASHRAE Taub {dimensionless}
  2.249;                                  ! ASHRAE Taud {dimensionless}

OS:ComponentData,
  {c03f4726-a703-4cca-b4e4-b7d441b068e6}, ! Handle
  Component Data 1,                       ! Name
  {f2ba7d57-bb4e-4452-8fb6-0504ff5b0353}, ! UUID
  {ccf7c940-0ec2-44ab-a9ce-a38a2b43ec8e}, ! Version UUID
  1366309068,                             ! Creation Timestamp
  1366309068,                             ! Version Timestamp
  {9e7ba7b9-4e8d-439a-a441-bafee738dd22}; ! Name of Object 1

