
OS:Version,
  {2d8332b5-c805-4b80-addd-c62722c91b4b}, ! Handle
  0.9.3;                                  ! Version Identifier

OS:SizingPeriod:DesignDay,
  {ee2e3e5f-21b4-4226-9bc9-4bcaba007508}, ! Handle
  St Cloud Regional Arpt Ann Clg 2% Condns DP=>MDB, ! Name
  25.7,                                   ! Maximum Dry-Bulb Temperature {C}
  12.3,                                   ! Daily Dry-Bulb Temperature Range {deltaC}
  20.7,                                   ! Humidity Indicating Conditions at Maximum Dry-Bulb {BasedOnField A3}
  97644,                                  ! Barometric Pressure {Pa}
  5.1,                                    ! Wind Speed {m/s}
  180,                                    ! Wind Direction {deg}
  0,                                      ! Sky Clearness
  0,                                      ! Rain Indicator
  0,                                      ! Snow Indicator
  21,                                     ! Day of Month
  7,                                      ! Month
  SummerDesignDay,                        ! Day Type
  0,                                      ! Daylight Saving Time Indicator
  Dewpoint,                               ! Humidity Indicating Type
  ,                                       ! Humidity Indicating Day Schedule Name
  DefaultMultipliers,                     ! Dry-Bulb Temperature Range Modifier Type
  ,                                       ! Dry-Bulb Temperature Range Modifier Schedule Name
  ASHRAETau,                              ! Solar Model Indicator
  ,                                       ! Beam Solar Day Schedule Name
  ,                                       ! Diffuse Solar Day Schedule Name
  0.405,                                  ! ASHRAE Taub {dimensionless}
  2.216;                                  ! ASHRAE Taud {dimensionless}

OS:ComponentData,
  {d2ab7731-f266-4a6e-91b2-9a3d8555bf68}, ! Handle
  Component Data 1,                       ! Name
  {96cb8178-37e9-453b-b839-e0a3642b070a}, ! UUID
  {6730d82f-0aee-4cea-8879-fa978af031cf}, ! Version UUID
  1366308430,                             ! Creation Timestamp
  1366308430,                             ! Version Timestamp
  {ee2e3e5f-21b4-4226-9bc9-4bcaba007508}; ! Name of Object 1

