
OS:Version,
  {0a954bef-89a9-4884-9f5f-adc8b163ad1a}, ! Handle
  0.9.3;                                  ! Version Identifier

OS:SizingPeriod:DesignDay,
  {6a9059ec-9bbb-417c-9300-1aac4d4599e4}, ! Handle
  San Antonio Kelly Field Afb Ann Clg .4% Condns DP=>MDB, ! Name
  27.4,                                   ! Maximum Dry-Bulb Temperature {C}
  11.7,                                   ! Daily Dry-Bulb Temperature Range {deltaC}
  25.6,                                   ! Humidity Indicating Conditions at Maximum Dry-Bulb {BasedOnField A3}
  98851,                                  ! Barometric Pressure {Pa}
  4,                                      ! Wind Speed {m/s}
  150,                                    ! Wind Direction {deg}
  0,                                      ! Sky Clearness
  0,                                      ! Rain Indicator
  0,                                      ! Snow Indicator
  21,                                     ! Day of Month
  8,                                      ! Month
  SummerDesignDay,                        ! Day Type
  0,                                      ! Daylight Saving Time Indicator
  Dewpoint,                               ! Humidity Indicating Type
  ,                                       ! Humidity Indicating Day Schedule Name
  DefaultMultipliers,                     ! Dry-Bulb Temperature Range Modifier Type
  ,                                       ! Dry-Bulb Temperature Range Modifier Schedule Name
  ASHRAETau,                              ! Solar Model Indicator
  ,                                       ! Beam Solar Day Schedule Name
  ,                                       ! Diffuse Solar Day Schedule Name
  0.451,                                  ! ASHRAE Taub {dimensionless}
  2.14;                                   ! ASHRAE Taud {dimensionless}

OS:ComponentData,
  {6490edd5-10a4-4688-90c1-24337d71a5b1}, ! Handle
  Component Data 1,                       ! Name
  {cf453d05-7288-4213-bafe-57b1799f8c7e}, ! UUID
  {7a3f27fa-c81c-4774-aa61-80a9cc4caba7}, ! Version UUID
  1366310882,                             ! Creation Timestamp
  1366310882,                             ! Version Timestamp
  {6a9059ec-9bbb-417c-9300-1aac4d4599e4}; ! Name of Object 1

