
OS:Version,
  {c2cfb012-5931-4fe8-bf38-b96940f52959}, ! Handle
  0.9.3;                                  ! Version Identifier

OS:SizingPeriod:DesignDay,
  {21b992fe-c00b-4ff4-aa43-611bc3458faf}, ! Handle
  Vero Beach Municipal Arpt Ann Clg .4% Condns Enth=>MDB, ! Name
  31,                                     ! Maximum Dry-Bulb Temperature {C}
  8.7,                                    ! Daily Dry-Bulb Temperature Range {deltaC}
  83500,                                  ! Humidity Indicating Conditions at Maximum Dry-Bulb {BasedOnField A3}
  101241,                                 ! Barometric Pressure {Pa}
  4.8,                                    ! Wind Speed {m/s}
  120,                                    ! Wind Direction {deg}
  0,                                      ! Sky Clearness
  0,                                      ! Rain Indicator
  0,                                      ! Snow Indicator
  21,                                     ! Day of Month
  7,                                      ! Month
  SummerDesignDay,                        ! Day Type
  0,                                      ! Daylight Saving Time Indicator
  Enthalpy,                               ! Humidity Indicating Type
  ,                                       ! Humidity Indicating Day Schedule Name
  DefaultMultipliers,                     ! Dry-Bulb Temperature Range Modifier Type
  ,                                       ! Dry-Bulb Temperature Range Modifier Schedule Name
  ASHRAETau,                              ! Solar Model Indicator
  ,                                       ! Beam Solar Day Schedule Name
  ,                                       ! Diffuse Solar Day Schedule Name
  0.492,                                  ! ASHRAE Taub {dimensionless}
  2.012;                                  ! ASHRAE Taud {dimensionless}

OS:ComponentData,
  {3583bcf5-087b-4266-b8e7-84cc19890a55}, ! Handle
  Component Data 1,                       ! Name
  {1b67902d-5181-46ed-988c-3359cd91f6f1}, ! UUID
  {e9ffbf4b-6ec7-4929-af19-c443bcc5a579}, ! Version UUID
  1366306946,                             ! Creation Timestamp
  1366306946,                             ! Version Timestamp
  {21b992fe-c00b-4ff4-aa43-611bc3458faf}; ! Name of Object 1

