
OS:Version,
  {8d5d95ed-b723-4f30-b57d-f1327af5a22c}, ! Handle
  0.9.3;                                  ! Version Identifier

OS:SizingPeriod:DesignDay,
  {e7c7d629-402a-476b-8bab-d36426c38c1c}, ! Handle
  Sterling/Washington Du Ann Clg 2% Condns Enth=>MDB, ! Name
  29.2,                                   ! Maximum Dry-Bulb Temperature {C}
  11.4,                                   ! Daily Dry-Bulb Temperature Range {deltaC}
  72500,                                  ! Humidity Indicating Conditions at Maximum Dry-Bulb {BasedOnField A3}
  100153,                                 ! Barometric Pressure {Pa}
  4,                                      ! Wind Speed {m/s}
  290,                                    ! Wind Direction {deg}
  0,                                      ! Sky Clearness
  0,                                      ! Rain Indicator
  0,                                      ! Snow Indicator
  21,                                     ! Day of Month
  7,                                      ! Month
  SummerDesignDay,                        ! Day Type
  0,                                      ! Daylight Saving Time Indicator
  Enthalpy,                               ! Humidity Indicating Type
  ,                                       ! Humidity Indicating Day Schedule Name
  DefaultMultipliers,                     ! Dry-Bulb Temperature Range Modifier Type
  ,                                       ! Dry-Bulb Temperature Range Modifier Schedule Name
  ASHRAETau,                              ! Solar Model Indicator
  ,                                       ! Beam Solar Day Schedule Name
  ,                                       ! Diffuse Solar Day Schedule Name
  0.544,                                  ! ASHRAE Taub {dimensionless}
  1.787;                                  ! ASHRAE Taud {dimensionless}

OS:ComponentData,
  {ebbb0773-61d6-4ebb-b152-fed8dd4658d3}, ! Handle
  Component Data 1,                       ! Name
  {d8f8692a-253b-4007-a483-5858cfff7abb}, ! UUID
  {908ab593-43ae-4803-9c29-57d580bdb0a3}, ! Version UUID
  1366311214,                             ! Creation Timestamp
  1366311214,                             ! Version Timestamp
  {e7c7d629-402a-476b-8bab-d36426c38c1c}; ! Name of Object 1

