
OS:Version,
  {e57bd7b9-3227-479b-9c22-d78757b4a317}, ! Handle
  0.9.3;                                  ! Version Identifier

OS:SizingPeriod:DesignDay,
  {438bcf83-b84e-4baa-a86e-88f192dae3a3}, ! Handle
  Scottsbluff Ann Htg 99% Condns DB,      ! Name
  -18.4,                                  ! Maximum Dry-Bulb Temperature {C}
  0,                                      ! Daily Dry-Bulb Temperature Range {deltaC}
  -18.4,                                  ! Humidity Indicating Conditions at Maximum Dry-Bulb {BasedOnField A3}
  87651,                                  ! Barometric Pressure {Pa}
  3.3,                                    ! Wind Speed {m/s}
  300,                                    ! Wind Direction {deg}
  0,                                      ! Sky Clearness
  0,                                      ! Rain Indicator
  0,                                      ! Snow Indicator
  21,                                     ! Day of Month
  12,                                     ! Month
  WinterDesignDay,                        ! Day Type
  0,                                      ! Daylight Saving Time Indicator
  Wetbulb,                                ! Humidity Indicating Type
  ,                                       ! Humidity Indicating Day Schedule Name
  DefaultMultipliers,                     ! Dry-Bulb Temperature Range Modifier Type
  ,                                       ! Dry-Bulb Temperature Range Modifier Schedule Name
  ASHRAEClearSky;                         ! Solar Model Indicator

OS:ComponentData,
  {73cb8278-f077-48f5-8961-57eb75902e38}, ! Handle
  Component Data 1,                       ! Name
  {24c6b71b-2be6-403c-93f7-8b83ad4aaa9e}, ! UUID
  {ce16db1e-7c09-4037-b807-555fdc255cae}, ! Version UUID
  1366309189,                             ! Creation Timestamp
  1366309189,                             ! Version Timestamp
  {438bcf83-b84e-4baa-a86e-88f192dae3a3}; ! Name of Object 1

