
OS:Version,
  {d0a4523b-2e32-441a-ba53-840253786df9}, ! Handle
  0.9.3;                                  ! Version Identifier

OS:SizingPeriod:DesignDay,
  {45543632-bfce-48c3-821b-d5c89493d971}, ! Handle
  Mercury Desert Rock Ap  Surfr Ann Clg 2% Condns DP=>MDB, ! Name
  27.2,                                   ! Maximum Dry-Bulb Temperature {C}
  14.8,                                   ! Daily Dry-Bulb Temperature Range {deltaC}
  13.6,                                   ! Humidity Indicating Conditions at Maximum Dry-Bulb {BasedOnField A3}
  90585,                                  ! Barometric Pressure {Pa}
  5.5,                                    ! Wind Speed {m/s}
  230,                                    ! Wind Direction {deg}
  0,                                      ! Sky Clearness
  0,                                      ! Rain Indicator
  0,                                      ! Snow Indicator
  21,                                     ! Day of Month
  7,                                      ! Month
  SummerDesignDay,                        ! Day Type
  0,                                      ! Daylight Saving Time Indicator
  Dewpoint,                               ! Humidity Indicating Type
  ,                                       ! Humidity Indicating Day Schedule Name
  DefaultMultipliers,                     ! Dry-Bulb Temperature Range Modifier Type
  ,                                       ! Dry-Bulb Temperature Range Modifier Schedule Name
  ASHRAETau,                              ! Solar Model Indicator
  ,                                       ! Beam Solar Day Schedule Name
  ,                                       ! Diffuse Solar Day Schedule Name
  0.507,                                  ! ASHRAE Taub {dimensionless}
  1.746;                                  ! ASHRAE Taud {dimensionless}

OS:ComponentData,
  {a9c8343c-64ce-42cf-b504-b0b1b50178b7}, ! Handle
  Component Data 1,                       ! Name
  {196935b2-0782-4be5-91cf-3412ae18136d}, ! UUID
  {3e6be156-b8ee-4dec-8d44-dd2eba15dd8d}, ! Version UUID
  1366309523,                             ! Creation Timestamp
  1366309523,                             ! Version Timestamp
  {45543632-bfce-48c3-821b-d5c89493d971}; ! Name of Object 1

