
OS:Version,
  {3f566b3e-a93d-4163-aaf0-57762fb8f970}, ! Handle
  0.9.3;                                  ! Version Identifier

OS:SizingPeriod:DesignDay,
  {0e54af64-d6c8-4c9a-b8b1-ea6dbaa245c1}, ! Handle
  North Platte Ann Htg Wind 99% Condns WS=>MCDB, ! Name
  -0.4,                                   ! Maximum Dry-Bulb Temperature {C}
  0,                                      ! Daily Dry-Bulb Temperature Range {deltaC}
  -0.4,                                   ! Humidity Indicating Conditions at Maximum Dry-Bulb {BasedOnField A3}
  91533,                                  ! Barometric Pressure {Pa}
  12.4,                                   ! Wind Speed {m/s}
  320,                                    ! Wind Direction {deg}
  0,                                      ! Sky Clearness
  0,                                      ! Rain Indicator
  0,                                      ! Snow Indicator
  21,                                     ! Day of Month
  1,                                      ! Month
  WinterDesignDay,                        ! Day Type
  0,                                      ! Daylight Saving Time Indicator
  Wetbulb,                                ! Humidity Indicating Type
  ,                                       ! Humidity Indicating Day Schedule Name
  DefaultMultipliers,                     ! Dry-Bulb Temperature Range Modifier Type
  ,                                       ! Dry-Bulb Temperature Range Modifier Schedule Name
  ASHRAEClearSky;                         ! Solar Model Indicator

OS:ComponentData,
  {0919208c-ff80-4cd5-8cc5-8b17b5f714d6}, ! Handle
  Component Data 1,                       ! Name
  {3c504826-9b24-43d8-8eac-2dd36ca317fb}, ! UUID
  {a17f581a-6b7f-4843-9eed-ff1166c656a2}, ! Version UUID
  1366309161,                             ! Creation Timestamp
  1366309161,                             ! Version Timestamp
  {0e54af64-d6c8-4c9a-b8b1-ea6dbaa245c1}; ! Name of Object 1

