
OS:Version,
  {3cf9b71d-5809-46fd-825b-5e00fdf984b7}, ! Handle
  0.9.3;                                  ! Version Identifier

OS:SizingPeriod:DesignDay,
  {0a3e4687-804e-48f0-badf-3976e6bfcb8c}, ! Handle
  Middletown Harrisburg Intl Ap Ann Clg .4% Condns DP=>MDB, ! Name
  28.3,                                   ! Maximum Dry-Bulb Temperature {C}
  9.6,                                    ! Daily Dry-Bulb Temperature Range {deltaC}
  24,                                     ! Humidity Indicating Conditions at Maximum Dry-Bulb {BasedOnField A3}
  100225,                                 ! Barometric Pressure {Pa}
  4.4,                                    ! Wind Speed {m/s}
  300,                                    ! Wind Direction {deg}
  0,                                      ! Sky Clearness
  0,                                      ! Rain Indicator
  0,                                      ! Snow Indicator
  21,                                     ! Day of Month
  7,                                      ! Month
  SummerDesignDay,                        ! Day Type
  0,                                      ! Daylight Saving Time Indicator
  Dewpoint,                               ! Humidity Indicating Type
  ,                                       ! Humidity Indicating Day Schedule Name
  DefaultMultipliers,                     ! Dry-Bulb Temperature Range Modifier Type
  ,                                       ! Dry-Bulb Temperature Range Modifier Schedule Name
  ASHRAETau,                              ! Solar Model Indicator
  ,                                       ! Beam Solar Day Schedule Name
  ,                                       ! Diffuse Solar Day Schedule Name
  0.521,                                  ! ASHRAE Taub {dimensionless}
  1.834;                                  ! ASHRAE Taud {dimensionless}

OS:ComponentData,
  {19184c9d-726f-40b0-9c12-625579f4955b}, ! Handle
  Component Data 1,                       ! Name
  {c87bb4cc-de14-4155-b27b-1f4e5a1f993d}, ! UUID
  {44f59165-9fab-42b7-8590-553fb76dc4c0}, ! Version UUID
  1366310198,                             ! Creation Timestamp
  1366310198,                             ! Version Timestamp
  {0a3e4687-804e-48f0-badf-3976e6bfcb8c}; ! Name of Object 1

