
OS:Version,
  {d0eed982-05b2-4e8b-9791-0b1b2e63af37}, ! Handle
  0.9.3;                                  ! Version Identifier

OS:SizingPeriod:DesignDay,
  {0e4c0de1-2d2e-47c7-90e0-858c4a159633}, ! Handle
  North Bend Muni Airport Ann Clg 1% Condns DP=>MDB, ! Name
  17.5,                                   ! Maximum Dry-Bulb Temperature {C}
  7.3,                                    ! Daily Dry-Bulb Temperature Range {deltaC}
  14.5,                                   ! Humidity Indicating Conditions at Maximum Dry-Bulb {BasedOnField A3}
  101301,                                 ! Barometric Pressure {Pa}
  6.1,                                    ! Wind Speed {m/s}
  330,                                    ! Wind Direction {deg}
  0,                                      ! Sky Clearness
  0,                                      ! Rain Indicator
  0,                                      ! Snow Indicator
  21,                                     ! Day of Month
  8,                                      ! Month
  SummerDesignDay,                        ! Day Type
  0,                                      ! Daylight Saving Time Indicator
  Dewpoint,                               ! Humidity Indicating Type
  ,                                       ! Humidity Indicating Day Schedule Name
  DefaultMultipliers,                     ! Dry-Bulb Temperature Range Modifier Type
  ,                                       ! Dry-Bulb Temperature Range Modifier Schedule Name
  ASHRAETau,                              ! Solar Model Indicator
  ,                                       ! Beam Solar Day Schedule Name
  ,                                       ! Diffuse Solar Day Schedule Name
  0.348,                                  ! ASHRAE Taub {dimensionless}
  2.638;                                  ! ASHRAE Taud {dimensionless}

OS:ComponentData,
  {e5b17ff7-6363-42d9-b9fa-c35191ae6010}, ! Handle
  Component Data 1,                       ! Name
  {b0461b24-244d-4869-b242-0d1f79236e65}, ! UUID
  {0074ca31-26a9-48d9-a793-27efd02789e7}, ! Version UUID
  1366310055,                             ! Creation Timestamp
  1366310055,                             ! Version Timestamp
  {0e4c0de1-2d2e-47c7-90e0-858c4a159633}; ! Name of Object 1

