
OS:Version,
  {90c754ad-072e-4d2e-89ce-86f2e7be9d12}, ! Handle
  0.9.3;                                  ! Version Identifier

OS:SizingPeriod:DesignDay,
  {677fe6d6-ad9d-433c-8c67-97ab969e5945}, ! Handle
  Soldotna Ann Clg .4% Condns DP=>MDB,    ! Name
  16.5,                                   ! Maximum Dry-Bulb Temperature {C}
  8.4,                                    ! Daily Dry-Bulb Temperature Range {deltaC}
  12.3,                                   ! Humidity Indicating Conditions at Maximum Dry-Bulb {BasedOnField A3}
  100917,                                 ! Barometric Pressure {Pa}
  2.9,                                    ! Wind Speed {m/s}
  280,                                    ! Wind Direction {deg}
  0,                                      ! Sky Clearness
  0,                                      ! Rain Indicator
  0,                                      ! Snow Indicator
  21,                                     ! Day of Month
  7,                                      ! Month
  SummerDesignDay,                        ! Day Type
  0,                                      ! Daylight Saving Time Indicator
  Dewpoint,                               ! Humidity Indicating Type
  ,                                       ! Humidity Indicating Day Schedule Name
  DefaultMultipliers,                     ! Dry-Bulb Temperature Range Modifier Type
  ,                                       ! Dry-Bulb Temperature Range Modifier Schedule Name
  ASHRAETau,                              ! Solar Model Indicator
  ,                                       ! Beam Solar Day Schedule Name
  ,                                       ! Diffuse Solar Day Schedule Name
  0.376,                                  ! ASHRAE Taub {dimensionless}
  2.229;                                  ! ASHRAE Taud {dimensionless}

OS:ComponentData,
  {5067e33e-99f7-424b-b37a-f055622661aa}, ! Handle
  Component Data 1,                       ! Name
  {546aa54c-08df-46d3-996e-c2320fa604e5}, ! UUID
  {e5e130e8-e414-4242-bcc3-c436b86df418}, ! Version UUID
  1366305567,                             ! Creation Timestamp
  1366305567,                             ! Version Timestamp
  {677fe6d6-ad9d-433c-8c67-97ab969e5945}; ! Name of Object 1

