
OS:Version,
  {b345dbe0-47c6-43cb-8ba9-2693b222516b}, ! Handle
  0.9.3;                                  ! Version Identifier

OS:SizingPeriod:DesignDay,
  {faa2e91f-2518-4166-af7b-55a70b081f20}, ! Handle
  Port Heiden Ann Clg .4% Condns Enth=>MDB, ! Name
  17.4,                                   ! Maximum Dry-Bulb Temperature {C}
  5.4,                                    ! Daily Dry-Bulb Temperature Range {deltaC}
  39300,                                  ! Humidity Indicating Conditions at Maximum Dry-Bulb {BasedOnField A3}
  100977,                                 ! Barometric Pressure {Pa}
  7.3,                                    ! Wind Speed {m/s}
  150,                                    ! Wind Direction {deg}
  0,                                      ! Sky Clearness
  0,                                      ! Rain Indicator
  0,                                      ! Snow Indicator
  21,                                     ! Day of Month
  8,                                      ! Month
  SummerDesignDay,                        ! Day Type
  0,                                      ! Daylight Saving Time Indicator
  Enthalpy,                               ! Humidity Indicating Type
  ,                                       ! Humidity Indicating Day Schedule Name
  DefaultMultipliers,                     ! Dry-Bulb Temperature Range Modifier Type
  ,                                       ! Dry-Bulb Temperature Range Modifier Schedule Name
  ASHRAETau,                              ! Solar Model Indicator
  ,                                       ! Beam Solar Day Schedule Name
  ,                                       ! Diffuse Solar Day Schedule Name
  0.375,                                  ! ASHRAE Taub {dimensionless}
  2.3;                                    ! ASHRAE Taud {dimensionless}

OS:ComponentData,
  {95d18fc4-6e61-4c01-896b-fa9e77bc7675}, ! Handle
  Component Data 1,                       ! Name
  {6145c462-b347-4605-821e-6466515f7ece}, ! UUID
  {7c72288e-2849-4e42-a9c7-c8a2afbd00fe}, ! Version UUID
  1366305507,                             ! Creation Timestamp
  1366305507,                             ! Version Timestamp
  {faa2e91f-2518-4166-af7b-55a70b081f20}; ! Name of Object 1

