
OS:Version,
  {c709b02f-196e-41f0-ba0c-a00e0d795063}, ! Handle
  0.9.3;                                  ! Version Identifier

OS:SizingPeriod:DesignDay,
  {605af051-f07c-49cf-bd56-84d3b69758de}, ! Handle
  Manassas Muni Awos Ann Htg Wind 99% Condns WS=>MCDB, ! Name
  1.4,                                    ! Maximum Dry-Bulb Temperature {C}
  0,                                      ! Daily Dry-Bulb Temperature Range {deltaC}
  1.4,                                    ! Humidity Indicating Conditions at Maximum Dry-Bulb {BasedOnField A3}
  100618,                                 ! Barometric Pressure {Pa}
  10.5,                                   ! Wind Speed {m/s}
  330,                                    ! Wind Direction {deg}
  0,                                      ! Sky Clearness
  0,                                      ! Rain Indicator
  0,                                      ! Snow Indicator
  21,                                     ! Day of Month
  1,                                      ! Month
  WinterDesignDay,                        ! Day Type
  0,                                      ! Daylight Saving Time Indicator
  Wetbulb,                                ! Humidity Indicating Type
  ,                                       ! Humidity Indicating Day Schedule Name
  DefaultMultipliers,                     ! Dry-Bulb Temperature Range Modifier Type
  ,                                       ! Dry-Bulb Temperature Range Modifier Schedule Name
  ASHRAEClearSky;                         ! Solar Model Indicator

