
OS:Version,
  {c8a76ef4-6db9-4b9a-9bca-3e992ad2485d}, ! Handle
  0.9.3;                                  ! Version Identifier

OS:SizingPeriod:DesignDay,
  {ca35cce9-d7fa-4417-869c-7a53c9cea836}, ! Handle
  Wendover Usaf Auxiliary Field Ann Hum_n 99% Condns DP=>MCDB, ! Name
  -6.9,                                   ! Maximum Dry-Bulb Temperature {C}
  0,                                      ! Daily Dry-Bulb Temperature Range {deltaC}
  -16.2,                                  ! Humidity Indicating Conditions at Maximum Dry-Bulb {BasedOnField A3}
  86747,                                  ! Barometric Pressure {Pa}
  0.7,                                    ! Wind Speed {m/s}
  290,                                    ! Wind Direction {deg}
  0,                                      ! Sky Clearness
  0,                                      ! Rain Indicator
  0,                                      ! Snow Indicator
  21,                                     ! Day of Month
  12,                                     ! Month
  WinterDesignDay,                        ! Day Type
  0,                                      ! Daylight Saving Time Indicator
  Dewpoint,                               ! Humidity Indicating Type
  ,                                       ! Humidity Indicating Day Schedule Name
  DefaultMultipliers,                     ! Dry-Bulb Temperature Range Modifier Type
  ,                                       ! Dry-Bulb Temperature Range Modifier Schedule Name
  ASHRAEClearSky;                         ! Solar Model Indicator

OS:ComponentData,
  {cc13807d-1712-437a-89bd-b68340b59936}, ! Handle
  Component Data 1,                       ! Name
  {b3432553-b590-4d31-b6e7-4e41f52f0c68}, ! UUID
  {e09633de-bd71-4b0f-be0b-dfeb5e185977}, ! Version UUID
  1366311008,                             ! Creation Timestamp
  1366311008,                             ! Version Timestamp
  {ca35cce9-d7fa-4417-869c-7a53c9cea836}; ! Name of Object 1

