
OS:Version,
  {9615db6f-951b-49b4-bfe8-fa4fe64920d8}, ! Handle
  0.9.3;                                  ! Version Identifier

OS:SizingPeriod:DesignDay,
  {6bbf37ae-9474-45ac-9989-2bf23748ee33}, ! Handle
  Martinsburg Eastern Wv Reg Ap Ann Hum_n 99.6% Condns DP=>MCDB, ! Name
  -9.6,                                   ! Maximum Dry-Bulb Temperature {C}
  0,                                      ! Daily Dry-Bulb Temperature Range {deltaC}
  -20.7,                                  ! Humidity Indicating Conditions at Maximum Dry-Bulb {BasedOnField A3}
  99394,                                  ! Barometric Pressure {Pa}
  2.8,                                    ! Wind Speed {m/s}
  270,                                    ! Wind Direction {deg}
  0,                                      ! Sky Clearness
  0,                                      ! Rain Indicator
  0,                                      ! Snow Indicator
  21,                                     ! Day of Month
  1,                                      ! Month
  WinterDesignDay,                        ! Day Type
  0,                                      ! Daylight Saving Time Indicator
  Dewpoint,                               ! Humidity Indicating Type
  ,                                       ! Humidity Indicating Day Schedule Name
  DefaultMultipliers,                     ! Dry-Bulb Temperature Range Modifier Type
  ,                                       ! Dry-Bulb Temperature Range Modifier Schedule Name
  ASHRAEClearSky;                         ! Solar Model Indicator

OS:ComponentData,
  {08e44002-3209-4a19-ad6a-01065eee2a3a}, ! Handle
  Component Data 1,                       ! Name
  {b4d9f7d0-01f9-4234-b3f4-efbff176750a}, ! UUID
  {646fd102-0ff1-4fd5-8df4-07218944bd4f}, ! Version UUID
  1366311665,                             ! Creation Timestamp
  1366311665,                             ! Version Timestamp
  {6bbf37ae-9474-45ac-9989-2bf23748ee33}; ! Name of Object 1

