
OS:Version,
  {4600757d-5910-42c8-abca-e7e32f781e79}, ! Handle
  0.9.3;                                  ! Version Identifier

OS:SizingPeriod:DesignDay,
  {a793f0e8-88b0-455d-b37c-63beff912a84}, ! Handle
  New Orleans Lakefront Ap Ann Htg Wind 99.6% Condns WS=>MCDB, ! Name
  9.4,                                    ! Maximum Dry-Bulb Temperature {C}
  0,                                      ! Daily Dry-Bulb Temperature Range {deltaC}
  9.4,                                    ! Humidity Indicating Conditions at Maximum Dry-Bulb {BasedOnField A3}
  101289,                                 ! Barometric Pressure {Pa}
  12,                                     ! Wind Speed {m/s}
  0,                                      ! Wind Direction {deg}
  0,                                      ! Sky Clearness
  0,                                      ! Rain Indicator
  0,                                      ! Snow Indicator
  21,                                     ! Day of Month
  1,                                      ! Month
  WinterDesignDay,                        ! Day Type
  0,                                      ! Daylight Saving Time Indicator
  Wetbulb,                                ! Humidity Indicating Type
  ,                                       ! Humidity Indicating Day Schedule Name
  DefaultMultipliers,                     ! Dry-Bulb Temperature Range Modifier Type
  ,                                       ! Dry-Bulb Temperature Range Modifier Schedule Name
  ASHRAEClearSky;                         ! Solar Model Indicator

OS:ComponentData,
  {1d4aebec-64c9-4dcd-9d3f-05400cc47e82}, ! Handle
  Component Data 1,                       ! Name
  {7c2a8d3d-e5b4-4bc5-a0a6-b15b797c0063}, ! UUID
  {cb5d7944-a916-4c45-808b-a3d25da40079}, ! Version UUID
  1366307743,                             ! Creation Timestamp
  1366307743,                             ! Version Timestamp
  {a793f0e8-88b0-455d-b37c-63beff912a84}; ! Name of Object 1

