
OS:Version,
  {3df7175a-3b4c-4ef2-8a0f-77db55478a4d}, ! Handle
  0.9.3;                                  ! Version Identifier

OS:SizingPeriod:DesignDay,
  {c73d6654-d539-44d9-ac82-47a71789d490}, ! Handle
  TAMPA Ann Clg 2% Condns DP=>MDB,        ! Name
  28.6,                                   ! Maximum Dry-Bulb Temperature {C}
  7.9,                                    ! Daily Dry-Bulb Temperature Range {deltaC}
  25,                                     ! Humidity Indicating Conditions at Maximum Dry-Bulb {BasedOnField A3}
  101289,                                 ! Barometric Pressure {Pa}
  3.9,                                    ! Wind Speed {m/s}
  260,                                    ! Wind Direction {deg}
  0,                                      ! Sky Clearness
  0,                                      ! Rain Indicator
  0,                                      ! Snow Indicator
  21,                                     ! Day of Month
  8,                                      ! Month
  SummerDesignDay,                        ! Day Type
  0,                                      ! Daylight Saving Time Indicator
  Dewpoint,                               ! Humidity Indicating Type
  ,                                       ! Humidity Indicating Day Schedule Name
  DefaultMultipliers,                     ! Dry-Bulb Temperature Range Modifier Type
  ,                                       ! Dry-Bulb Temperature Range Modifier Schedule Name
  ASHRAETau,                              ! Solar Model Indicator
  ,                                       ! Beam Solar Day Schedule Name
  ,                                       ! Diffuse Solar Day Schedule Name
  0.493,                                  ! ASHRAE Taub {dimensionless}
  2.01;                                   ! ASHRAE Taud {dimensionless}

OS:ComponentData,
  {59d8bba9-7186-4dd4-b03e-f436c7cb8b53}, ! Handle
  Component Data 1,                       ! Name
  {b36180a8-4f0f-46dd-85d0-5468506c36a8}, ! UUID
  {b177a494-2d93-4769-b378-3ef3c531cad9}, ! Version UUID
  1366306930,                             ! Creation Timestamp
  1366306930,                             ! Version Timestamp
  {c73d6654-d539-44d9-ac82-47a71789d490}; ! Name of Object 1

