
OS:Version,
  {60776c66-9305-4b99-b951-f0f3a535c6c3}, ! Handle
  0.9.3;                                  ! Version Identifier

OS:SizingPeriod:DesignDay,
  {ed10fa5f-e278-46eb-8021-bdfed9aad97b}, ! Handle
  New York J F Kennedy IntL Ar Ann Hum_n 99% Condns DP=>MCDB, ! Name
  -6.6,                                   ! Maximum Dry-Bulb Temperature {C}
  0,                                      ! Daily Dry-Bulb Temperature Range {deltaC}
  -18.7,                                  ! Humidity Indicating Conditions at Maximum Dry-Bulb {BasedOnField A3}
  101265,                                 ! Barometric Pressure {Pa}
  7.5,                                    ! Wind Speed {m/s}
  320,                                    ! Wind Direction {deg}
  0,                                      ! Sky Clearness
  0,                                      ! Rain Indicator
  0,                                      ! Snow Indicator
  21,                                     ! Day of Month
  1,                                      ! Month
  WinterDesignDay,                        ! Day Type
  0,                                      ! Daylight Saving Time Indicator
  Dewpoint,                               ! Humidity Indicating Type
  ,                                       ! Humidity Indicating Day Schedule Name
  DefaultMultipliers,                     ! Dry-Bulb Temperature Range Modifier Type
  ,                                       ! Dry-Bulb Temperature Range Modifier Schedule Name
  ASHRAEClearSky;                         ! Solar Model Indicator

OS:ComponentData,
  {3f5658ae-6707-431a-9020-311d3ed01087}, ! Handle
  Component Data 1,                       ! Name
  {e343fda6-1cef-4517-8e7d-6bee55b7ce7b}, ! UUID
  {cb5340e9-2bfa-4ca4-b8b0-08625a35ee79}, ! Version UUID
  1366309664,                             ! Creation Timestamp
  1366309664,                             ! Version Timestamp
  {ed10fa5f-e278-46eb-8021-bdfed9aad97b}; ! Name of Object 1

