
OS:Version,
  {280753be-3724-4144-864b-283684aea269}, ! Handle
  0.9.3;                                  ! Version Identifier

OS:SizingPeriod:DesignDay,
  {727f5073-8d33-4b2a-93ba-6809b5d13532}, ! Handle
  Phoenix/Int'l Airport Ann Hum_n 99.6% Condns DP=>MCDB, ! Name
  15.4,                                   ! Maximum Dry-Bulb Temperature {C}
  0,                                      ! Daily Dry-Bulb Temperature Range {deltaC}
  -14.5,                                  ! Humidity Indicating Conditions at Maximum Dry-Bulb {BasedOnField A3}
  97342,                                  ! Barometric Pressure {Pa}
  1.7,                                    ! Wind Speed {m/s}
  100,                                    ! Wind Direction {deg}
  0,                                      ! Sky Clearness
  0,                                      ! Rain Indicator
  0,                                      ! Snow Indicator
  21,                                     ! Day of Month
  12,                                     ! Month
  WinterDesignDay,                        ! Day Type
  0,                                      ! Daylight Saving Time Indicator
  Dewpoint,                               ! Humidity Indicating Type
  ,                                       ! Humidity Indicating Day Schedule Name
  DefaultMultipliers,                     ! Dry-Bulb Temperature Range Modifier Type
  ,                                       ! Dry-Bulb Temperature Range Modifier Schedule Name
  ASHRAEClearSky;                         ! Solar Model Indicator

OS:ComponentData,
  {6cbbdb09-1ed4-4c26-9c6b-502f0b2d8bf4}, ! Handle
  Component Data 1,                       ! Name
  {b951b5da-4e28-4e29-ab47-34c436c7cb90}, ! UUID
  {61583428-ee8f-4697-bfc9-3e8bb99b66b2}, ! Version UUID
  1366306291,                             ! Creation Timestamp
  1366306291,                             ! Version Timestamp
  {727f5073-8d33-4b2a-93ba-6809b5d13532}; ! Name of Object 1

