
OS:Version,
  {545de38b-ff6c-4540-abf3-9e2dcac0dc59}, ! Handle
  0.9.3;                                  ! Version Identifier

OS:SizingPeriod:DesignDay,
  {80be709f-3e9f-4de2-a1de-6fe3f0f24a47}, ! Handle
  Waco Regional Ap Ann Hum_n 99.6% Condns DP=>MCDB, ! Name
  -1.8,                                   ! Maximum Dry-Bulb Temperature {C}
  0,                                      ! Daily Dry-Bulb Temperature Range {deltaC}
  -11.9,                                  ! Humidity Indicating Conditions at Maximum Dry-Bulb {BasedOnField A3}
  99512,                                  ! Barometric Pressure {Pa}
  5.1,                                    ! Wind Speed {m/s}
  0,                                      ! Wind Direction {deg}
  0,                                      ! Sky Clearness
  0,                                      ! Rain Indicator
  0,                                      ! Snow Indicator
  21,                                     ! Day of Month
  1,                                      ! Month
  WinterDesignDay,                        ! Day Type
  0,                                      ! Daylight Saving Time Indicator
  Dewpoint,                               ! Humidity Indicating Type
  ,                                       ! Humidity Indicating Day Schedule Name
  DefaultMultipliers,                     ! Dry-Bulb Temperature Range Modifier Type
  ,                                       ! Dry-Bulb Temperature Range Modifier Schedule Name
  ASHRAEClearSky;                         ! Solar Model Indicator

OS:ComponentData,
  {ea969338-98fd-4e5d-bad8-2307b5220931}, ! Handle
  Component Data 1,                       ! Name
  {0396f506-a43b-4014-a000-a3e237bd5548}, ! UUID
  {34f44665-da73-47f9-a60d-9ee21637d5bd}, ! Version UUID
  1366310924,                             ! Creation Timestamp
  1366310924,                             ! Version Timestamp
  {80be709f-3e9f-4de2-a1de-6fe3f0f24a47}; ! Name of Object 1

