
OS:Version,
  {cc71bfd8-39b1-43f6-bf88-fdd03c7e90d0}, ! Handle
  0.9.3;                                  ! Version Identifier

OS:SizingPeriod:DesignDay,
  {22a46589-954b-45fd-926f-6c9a6fc609b4}, ! Handle
  POCATELLO Ann Hum_n 99.6% Condns DP=>MCDB, ! Name
  -20.3,                                  ! Maximum Dry-Bulb Temperature {C}
  0,                                      ! Daily Dry-Bulb Temperature Range {deltaC}
  -23.8,                                  ! Humidity Indicating Conditions at Maximum Dry-Bulb {BasedOnField A3}
  85966,                                  ! Barometric Pressure {Pa}
  2.1,                                    ! Wind Speed {m/s}
  30,                                     ! Wind Direction {deg}
  0,                                      ! Sky Clearness
  0,                                      ! Rain Indicator
  0,                                      ! Snow Indicator
  21,                                     ! Day of Month
  12,                                     ! Month
  WinterDesignDay,                        ! Day Type
  0,                                      ! Daylight Saving Time Indicator
  Dewpoint,                               ! Humidity Indicating Type
  ,                                       ! Humidity Indicating Day Schedule Name
  DefaultMultipliers,                     ! Dry-Bulb Temperature Range Modifier Type
  ,                                       ! Dry-Bulb Temperature Range Modifier Schedule Name
  ASHRAEClearSky;                         ! Solar Model Indicator

OS:ComponentData,
  {bba38a05-3d55-404a-952d-a8610ca8e166}, ! Handle
  Component Data 1,                       ! Name
  {18e5a5e6-5fca-48d5-83b5-ab0ddc3de5c6}, ! UUID
  {bb31c014-1501-4238-bc6c-0d67bab21f41}, ! Version UUID
  1366307299,                             ! Creation Timestamp
  1366307299,                             ! Version Timestamp
  {22a46589-954b-45fd-926f-6c9a6fc609b4}; ! Name of Object 1

