
OS:Version,
  {cead7aca-f9b7-46a7-9086-d52d51df48ee}, ! Handle
  0.9.3;                                  ! Version Identifier

OS:SizingPeriod:DesignDay,
  {b25d45a1-b59e-4b11-806e-2b237816d606}, ! Handle
  Wichita Falls/Sheppard Ann Htg 99.6% Condns DB, ! Name
  -9.3,                                   ! Maximum Dry-Bulb Temperature {C}
  0,                                      ! Daily Dry-Bulb Temperature Range {deltaC}
  -9.3,                                   ! Humidity Indicating Conditions at Maximum Dry-Bulb {BasedOnField A3}
  97609,                                  ! Barometric Pressure {Pa}
  5.7,                                    ! Wind Speed {m/s}
  0,                                      ! Wind Direction {deg}
  0,                                      ! Sky Clearness
  0,                                      ! Rain Indicator
  0,                                      ! Snow Indicator
  21,                                     ! Day of Month
  1,                                      ! Month
  WinterDesignDay,                        ! Day Type
  0,                                      ! Daylight Saving Time Indicator
  Wetbulb,                                ! Humidity Indicating Type
  ,                                       ! Humidity Indicating Day Schedule Name
  DefaultMultipliers,                     ! Dry-Bulb Temperature Range Modifier Type
  ,                                       ! Dry-Bulb Temperature Range Modifier Schedule Name
  ASHRAEClearSky;                         ! Solar Model Indicator

OS:ComponentData,
  {bd2bf814-1a0f-48b8-b841-88d8fd67d135}, ! Handle
  Component Data 1,                       ! Name
  {763e7e7f-3e6f-47ab-a85d-86739fce3ed4}, ! UUID
  {45205f24-0d61-4787-b5d9-e6511d3d3db4}, ! Version UUID
  1366310931,                             ! Creation Timestamp
  1366310931,                             ! Version Timestamp
  {b25d45a1-b59e-4b11-806e-2b237816d606}; ! Name of Object 1

