
OS:Version,
  {5d74ab7b-aaa7-4147-8674-39b1e8c0b5c1}, ! Handle
  0.9.3;                                  ! Version Identifier

OS:SizingPeriod:DesignDay,
  {131ce2ea-8b84-4786-a11a-8515c16fa357}, ! Handle
  Syracuse Hancock IntL Arpt Ann Clg 2% Condns Enth=>MDB, ! Name
  26.8,                                   ! Maximum Dry-Bulb Temperature {C}
  10.8,                                   ! Daily Dry-Bulb Temperature Range {deltaC}
  65900,                                  ! Humidity Indicating Conditions at Maximum Dry-Bulb {BasedOnField A3}
  99832,                                  ! Barometric Pressure {Pa}
  4.4,                                    ! Wind Speed {m/s}
  260,                                    ! Wind Direction {deg}
  0,                                      ! Sky Clearness
  0,                                      ! Rain Indicator
  0,                                      ! Snow Indicator
  21,                                     ! Day of Month
  7,                                      ! Month
  SummerDesignDay,                        ! Day Type
  0,                                      ! Daylight Saving Time Indicator
  Enthalpy,                               ! Humidity Indicating Type
  ,                                       ! Humidity Indicating Day Schedule Name
  DefaultMultipliers,                     ! Dry-Bulb Temperature Range Modifier Type
  ,                                       ! Dry-Bulb Temperature Range Modifier Schedule Name
  ASHRAETau,                              ! Solar Model Indicator
  ,                                       ! Beam Solar Day Schedule Name
  ,                                       ! Diffuse Solar Day Schedule Name
  0.47,                                   ! ASHRAE Taub {dimensionless}
  1.975;                                  ! ASHRAE Taud {dimensionless}

OS:ComponentData,
  {08ecbbdd-1c35-4497-84d1-b4d70c3b3647}, ! Handle
  Component Data 1,                       ! Name
  {75e1b741-00e9-4a14-abc5-e27cd1e3ae9f}, ! UUID
  {58d19ce3-bfd5-4154-99f4-1cc31596d347}, ! Version UUID
  1366309737,                             ! Creation Timestamp
  1366309737,                             ! Version Timestamp
  {131ce2ea-8b84-4786-a11a-8515c16fa357}; ! Name of Object 1

