
OS:Version,
  {1c1f39e9-2ae9-41ea-a3c9-d999288cc9cd}, ! Handle
  0.9.3;                                  ! Version Identifier

OS:SizingPeriod:DesignDay,
  {4b1235bf-27cd-49c7-aa12-8f805695367e}, ! Handle
  Whidbey Island Nas Ann Clg 2% Condns WB=>MDB, ! Name
  18.8,                                   ! Maximum Dry-Bulb Temperature {C}
  7.8,                                    ! Daily Dry-Bulb Temperature Range {deltaC}
  15.6,                                   ! Humidity Indicating Conditions at Maximum Dry-Bulb {BasedOnField A3}
  101205,                                 ! Barometric Pressure {Pa}
  3,                                      ! Wind Speed {m/s}
  260,                                    ! Wind Direction {deg}
  0,                                      ! Sky Clearness
  0,                                      ! Rain Indicator
  0,                                      ! Snow Indicator
  21,                                     ! Day of Month
  8,                                      ! Month
  SummerDesignDay,                        ! Day Type
  0,                                      ! Daylight Saving Time Indicator
  Wetbulb,                                ! Humidity Indicating Type
  ,                                       ! Humidity Indicating Day Schedule Name
  DefaultMultipliers,                     ! Dry-Bulb Temperature Range Modifier Type
  ,                                       ! Dry-Bulb Temperature Range Modifier Schedule Name
  ASHRAETau,                              ! Solar Model Indicator
  ,                                       ! Beam Solar Day Schedule Name
  ,                                       ! Diffuse Solar Day Schedule Name
  0.356,                                  ! ASHRAE Taub {dimensionless}
  2.524;                                  ! ASHRAE Taud {dimensionless}

OS:ComponentData,
  {69048429-7773-4d4e-99e3-9b0e958de75b}, ! Handle
  Component Data 1,                       ! Name
  {b8151e2c-02a5-46bc-b6f4-e297528fb197}, ! UUID
  {f292e4b6-7d6d-476e-a495-59120cec06b2}, ! Version UUID
  1366311437,                             ! Creation Timestamp
  1366311437,                             ! Version Timestamp
  {4b1235bf-27cd-49c7-aa12-8f805695367e}; ! Name of Object 1

