
OS:Version,
  {063a78a8-77a6-447b-a990-aa52d2acab7b}, ! Handle
  0.9.3;                                  ! Version Identifier

OS:SizingPeriod:DesignDay,
  {d391e981-0fdc-48bf-934f-f07df9f1ce10}, ! Handle
  Modesto City County Ap Ann Htg Wind 99% Condns WS=>MCDB, ! Name
  9.8,                                    ! Maximum Dry-Bulb Temperature {C}
  0,                                      ! Daily Dry-Bulb Temperature Range {deltaC}
  9.8,                                    ! Humidity Indicating Conditions at Maximum Dry-Bulb {BasedOnField A3}
  100965,                                 ! Barometric Pressure {Pa}
  7.7,                                    ! Wind Speed {m/s}
  120,                                    ! Wind Direction {deg}
  0,                                      ! Sky Clearness
  0,                                      ! Rain Indicator
  0,                                      ! Snow Indicator
  21,                                     ! Day of Month
  1,                                      ! Month
  WinterDesignDay,                        ! Day Type
  0,                                      ! Daylight Saving Time Indicator
  Wetbulb,                                ! Humidity Indicating Type
  ,                                       ! Humidity Indicating Day Schedule Name
  DefaultMultipliers,                     ! Dry-Bulb Temperature Range Modifier Type
  ,                                       ! Dry-Bulb Temperature Range Modifier Schedule Name
  ASHRAEClearSky;                         ! Solar Model Indicator

OS:ComponentData,
  {14034015-6ac6-4d11-8e06-a5f689671c84}, ! Handle
  Component Data 1,                       ! Name
  {683be753-44c8-487f-b84f-a28883b888c9}, ! UUID
  {a7698ae1-372b-44a5-85c1-1e13203e69c4}, ! Version UUID
  1366306490,                             ! Creation Timestamp
  1366306490,                             ! Version Timestamp
  {d391e981-0fdc-48bf-934f-f07df9f1ce10}; ! Name of Object 1

