
OS:Version,
  {7606278c-4da6-4b27-ba26-7d128a5b9a7f}, ! Handle
  0.9.3;                                  ! Version Identifier

OS:SizingPeriod:DesignDay,
  {d6f700eb-685b-4348-9895-8c93906fb735}, ! Handle
  Manitowac Muni Awos Ann Hum_n 99.6% Condns DP=>MCDB, ! Name
  -17.3,                                  ! Maximum Dry-Bulb Temperature {C}
  0,                                      ! Daily Dry-Bulb Temperature Range {deltaC}
  -27.1,                                  ! Humidity Indicating Conditions at Maximum Dry-Bulb {BasedOnField A3}
  98969,                                  ! Barometric Pressure {Pa}
  5.4,                                    ! Wind Speed {m/s}
  280,                                    ! Wind Direction {deg}
  0,                                      ! Sky Clearness
  0,                                      ! Rain Indicator
  0,                                      ! Snow Indicator
  21,                                     ! Day of Month
  1,                                      ! Month
  WinterDesignDay,                        ! Day Type
  0,                                      ! Daylight Saving Time Indicator
  Dewpoint,                               ! Humidity Indicating Type
  ,                                       ! Humidity Indicating Day Schedule Name
  DefaultMultipliers,                     ! Dry-Bulb Temperature Range Modifier Type
  ,                                       ! Dry-Bulb Temperature Range Modifier Schedule Name
  ASHRAEClearSky;                         ! Solar Model Indicator

OS:ComponentData,
  {8a19cc3d-9bb6-4466-ae10-4a1416405b3d}, ! Handle
  Component Data 1,                       ! Name
  {b62ce3d6-f5ce-401b-bdd0-7a826d5458e8}, ! UUID
  {87a9704c-4ed3-4ea5-8cee-78393b0f66fb}, ! Version UUID
  1366311536,                             ! Creation Timestamp
  1366311536,                             ! Version Timestamp
  {d6f700eb-685b-4348-9895-8c93906fb735}; ! Name of Object 1

