
OS:Version,
  {54e5e541-90f7-402e-a5f9-07fbddf26ecf}, ! Handle
  0.9.3;                                  ! Version Identifier

OS:SizingPeriod:DesignDay,
  {38fca08a-1018-4c4d-a500-b31d1fb526f9}, ! Handle
  MILES_CITY Ann Clg 1% Condns DB=>MWB,   ! Name
  34.8,                                   ! Maximum Dry-Bulb Temperature {C}
  14.9,                                   ! Daily Dry-Bulb Temperature Range {deltaC}
  18.3,                                   ! Humidity Indicating Conditions at Maximum Dry-Bulb {BasedOnField A3}
  92043,                                  ! Barometric Pressure {Pa}
  4.7,                                    ! Wind Speed {m/s}
  140,                                    ! Wind Direction {deg}
  0,                                      ! Sky Clearness
  0,                                      ! Rain Indicator
  0,                                      ! Snow Indicator
  21,                                     ! Day of Month
  7,                                      ! Month
  SummerDesignDay,                        ! Day Type
  0,                                      ! Daylight Saving Time Indicator
  Wetbulb,                                ! Humidity Indicating Type
  ,                                       ! Humidity Indicating Day Schedule Name
  DefaultMultipliers,                     ! Dry-Bulb Temperature Range Modifier Type
  ,                                       ! Dry-Bulb Temperature Range Modifier Schedule Name
  ASHRAETau,                              ! Solar Model Indicator
  ,                                       ! Beam Solar Day Schedule Name
  ,                                       ! Diffuse Solar Day Schedule Name
  0.418,                                  ! ASHRAE Taub {dimensionless}
  2.061;                                  ! ASHRAE Taud {dimensionless}

OS:ComponentData,
  {e746031b-5c67-47d9-9192-74a9ac83ad5e}, ! Handle
  Component Data 1,                       ! Name
  {c4b20217-9b5d-4508-bc93-e6831216a047}, ! UUID
  {ba0c2f58-bafd-4874-82d7-e5739eed3b97}, ! Version UUID
  1366308827,                             ! Creation Timestamp
  1366308827,                             ! Version Timestamp
  {38fca08a-1018-4c4d-a500-b31d1fb526f9}; ! Name of Object 1

