
OS:Version,
  {326fccb8-85a5-4c57-8dd0-205e40cf31b8}, ! Handle
  0.9.3;                                  ! Version Identifier

OS:SizingPeriod:DesignDay,
  {ed5b102b-415a-4d6f-b211-d9ca9b84415a}, ! Handle
  Orlando Executive Ap Ann Clg 1% Condns Enth=>MDB, ! Name
  30.2,                                   ! Maximum Dry-Bulb Temperature {C}
  8.8,                                    ! Daily Dry-Bulb Temperature Range {deltaC}
  80700,                                  ! Humidity Indicating Conditions at Maximum Dry-Bulb {BasedOnField A3}
  100929,                                 ! Barometric Pressure {Pa}
  3.7,                                    ! Wind Speed {m/s}
  270,                                    ! Wind Direction {deg}
  0,                                      ! Sky Clearness
  0,                                      ! Rain Indicator
  0,                                      ! Snow Indicator
  21,                                     ! Day of Month
  7,                                      ! Month
  SummerDesignDay,                        ! Day Type
  0,                                      ! Daylight Saving Time Indicator
  Enthalpy,                               ! Humidity Indicating Type
  ,                                       ! Humidity Indicating Day Schedule Name
  DefaultMultipliers,                     ! Dry-Bulb Temperature Range Modifier Type
  ,                                       ! Dry-Bulb Temperature Range Modifier Schedule Name
  ASHRAETau,                              ! Solar Model Indicator
  ,                                       ! Beam Solar Day Schedule Name
  ,                                       ! Diffuse Solar Day Schedule Name
  0.516,                                  ! ASHRAE Taub {dimensionless}
  1.924;                                  ! ASHRAE Taud {dimensionless}

OS:ComponentData,
  {200b49cf-84ee-4035-853f-bf28a8a58277}, ! Handle
  Component Data 1,                       ! Name
  {f329df02-bbec-4a4a-8258-849fecb26634}, ! UUID
  {17c73ad2-b039-4cd0-a83f-06902b648670}, ! Version UUID
  1366306893,                             ! Creation Timestamp
  1366306893,                             ! Version Timestamp
  {ed5b102b-415a-4d6f-b211-d9ca9b84415a}; ! Name of Object 1

