
OS:Version,
  {ae39488f-89be-4f86-91c2-28cde89f44b8}, ! Handle
  0.9.3;                                  ! Version Identifier

OS:SizingPeriod:DesignDay,
  {65d7d9af-97e5-457d-91cf-b451d269a440}, ! Handle
  Spencer Ann Htg Wind 99% Condns WS=>MCDB, ! Name
  -8.3,                                   ! Maximum Dry-Bulb Temperature {C}
  0,                                      ! Daily Dry-Bulb Temperature Range {deltaC}
  -8.3,                                   ! Humidity Indicating Conditions at Maximum Dry-Bulb {BasedOnField A3}
  96519,                                  ! Barometric Pressure {Pa}
  12.3,                                   ! Wind Speed {m/s}
  300,                                    ! Wind Direction {deg}
  0,                                      ! Sky Clearness
  0,                                      ! Rain Indicator
  0,                                      ! Snow Indicator
  21,                                     ! Day of Month
  1,                                      ! Month
  WinterDesignDay,                        ! Day Type
  0,                                      ! Daylight Saving Time Indicator
  Wetbulb,                                ! Humidity Indicating Type
  ,                                       ! Humidity Indicating Day Schedule Name
  DefaultMultipliers,                     ! Dry-Bulb Temperature Range Modifier Type
  ,                                       ! Dry-Bulb Temperature Range Modifier Schedule Name
  ASHRAEClearSky;                         ! Solar Model Indicator

OS:ComponentData,
  {a998572e-d964-4be2-856d-84e50f93d3ef}, ! Handle
  Component Data 1,                       ! Name
  {f605fa0c-e9ed-4775-8795-9f14035df884}, ! UUID
  {68df5ec3-11ad-4e5a-9e11-42089b6af9f7}, ! Version UUID
  1366307242,                             ! Creation Timestamp
  1366307242,                             ! Version Timestamp
  {65d7d9af-97e5-457d-91cf-b451d269a440}; ! Name of Object 1

