
OS:Version,
  {c6103975-acf5-4691-a065-2e48c7695617}, ! Handle
  0.9.3;                                  ! Version Identifier

OS:SizingPeriod:DesignDay,
  {1ba441fe-6ac0-42b9-90a8-a048a642405f}, ! Handle
  Tampa/Int'l Airport Ann Htg 99% Condns DB, ! Name
  5.8,                                    ! Maximum Dry-Bulb Temperature {C}
  0,                                      ! Daily Dry-Bulb Temperature Range {deltaC}
  5.8,                                    ! Humidity Indicating Conditions at Maximum Dry-Bulb {BasedOnField A3}
  101289,                                 ! Barometric Pressure {Pa}
  2.8,                                    ! Wind Speed {m/s}
  10,                                     ! Wind Direction {deg}
  0,                                      ! Sky Clearness
  0,                                      ! Rain Indicator
  0,                                      ! Snow Indicator
  21,                                     ! Day of Month
  1,                                      ! Month
  WinterDesignDay,                        ! Day Type
  0,                                      ! Daylight Saving Time Indicator
  Wetbulb,                                ! Humidity Indicating Type
  ,                                       ! Humidity Indicating Day Schedule Name
  DefaultMultipliers,                     ! Dry-Bulb Temperature Range Modifier Type
  ,                                       ! Dry-Bulb Temperature Range Modifier Schedule Name
  ASHRAEClearSky;                         ! Solar Model Indicator

OS:ComponentData,
  {df1d5673-9de8-4427-b44e-4126baa3e1b6}, ! Handle
  Component Data 1,                       ! Name
  {73b717cb-73db-4711-9643-b67d63f4406d}, ! UUID
  {313cdbb0-2a79-463c-ac06-13496e3c6c4d}, ! Version UUID
  1366306932,                             ! Creation Timestamp
  1366306932,                             ! Version Timestamp
  {1ba441fe-6ac0-42b9-90a8-a048a642405f}; ! Name of Object 1

