
OS:Version,
  {c0a76a8d-fcb2-40a3-9e49-e966d4a94251}, ! Handle
  0.9.3;                                  ! Version Identifier

OS:SizingPeriod:DesignDay,
  {a5023c0b-f058-4410-a3d5-fff0f1a481af}, ! Handle
  WATERLOO Ann Htg Wind 99% Condns WS=>MCDB, ! Name
  -9.4,                                   ! Maximum Dry-Bulb Temperature {C}
  0,                                      ! Daily Dry-Bulb Temperature Range {deltaC}
  -9.4,                                   ! Humidity Indicating Conditions at Maximum Dry-Bulb {BasedOnField A3}
  98182,                                  ! Barometric Pressure {Pa}
  12.7,                                   ! Wind Speed {m/s}
  310,                                    ! Wind Direction {deg}
  0,                                      ! Sky Clearness
  0,                                      ! Rain Indicator
  0,                                      ! Snow Indicator
  21,                                     ! Day of Month
  1,                                      ! Month
  WinterDesignDay,                        ! Day Type
  0,                                      ! Daylight Saving Time Indicator
  Wetbulb,                                ! Humidity Indicating Type
  ,                                       ! Humidity Indicating Day Schedule Name
  DefaultMultipliers,                     ! Dry-Bulb Temperature Range Modifier Type
  ,                                       ! Dry-Bulb Temperature Range Modifier Schedule Name
  ASHRAEClearSky;                         ! Solar Model Indicator

OS:ComponentData,
  {ad31b0bf-92b0-4e63-bbc8-f266ee8b9372}, ! Handle
  Component Data 1,                       ! Name
  {919d4c0b-67b1-4f14-9d2c-f49d0dfbcde4}, ! UUID
  {ce43bc2e-d7cd-40bf-8ff6-33f4bc6cdff2}, ! Version UUID
  1366307251,                             ! Creation Timestamp
  1366307251,                             ! Version Timestamp
  {a5023c0b-f058-4410-a3d5-fff0f1a481af}; ! Name of Object 1

