
OS:Version,
  {79232e82-8a57-4d0c-9b62-ecb5c4bb0ad2}, ! Handle
  0.9.3;                                  ! Version Identifier

OS:SizingPeriod:DesignDay,
  {6bfd5871-09f3-4645-a98c-20a66649eec4}, ! Handle
  Yakima Ann Clg .4% Condns WB=>MDB,      ! Name
  32.6,                                   ! Maximum Dry-Bulb Temperature {C}
  17.9,                                   ! Daily Dry-Bulb Temperature Range {deltaC}
  20.2,                                   ! Humidity Indicating Conditions at Maximum Dry-Bulb {BasedOnField A3}
  97481,                                  ! Barometric Pressure {Pa}
  2.7,                                    ! Wind Speed {m/s}
  100,                                    ! Wind Direction {deg}
  0,                                      ! Sky Clearness
  0,                                      ! Rain Indicator
  0,                                      ! Snow Indicator
  21,                                     ! Day of Month
  7,                                      ! Month
  SummerDesignDay,                        ! Day Type
  0,                                      ! Daylight Saving Time Indicator
  Wetbulb,                                ! Humidity Indicating Type
  ,                                       ! Humidity Indicating Day Schedule Name
  DefaultMultipliers,                     ! Dry-Bulb Temperature Range Modifier Type
  ,                                       ! Dry-Bulb Temperature Range Modifier Schedule Name
  ASHRAETau,                              ! Solar Model Indicator
  ,                                       ! Beam Solar Day Schedule Name
  ,                                       ! Diffuse Solar Day Schedule Name
  0.395,                                  ! ASHRAE Taub {dimensionless}
  2.249;                                  ! ASHRAE Taud {dimensionless}

OS:ComponentData,
  {478ec67d-7139-458b-9ac6-8462104ff7ff}, ! Handle
  Component Data 1,                       ! Name
  {44d97e98-ed0b-427e-a9fc-17fa8f32c436}, ! UUID
  {5ae5257d-c723-4576-b324-9aa99c41644e}, ! Version UUID
  1366311448,                             ! Creation Timestamp
  1366311448,                             ! Version Timestamp
  {6bfd5871-09f3-4645-a98c-20a66649eec4}; ! Name of Object 1

