
OS:Version,
  {16185016-25f8-4157-a90d-1debe72bff90}, ! Handle
  0.9.3;                                  ! Version Identifier

OS:SizingPeriod:DesignDay,
  {007dd725-cb89-4d5f-a81c-33aac7b02bd0}, ! Handle
  Rockford Greater Rockford Ap Ann Htg Wind 99.6% Condns WS=>MCDB, ! Name
  -5.5,                                   ! Maximum Dry-Bulb Temperature {C}
  0,                                      ! Daily Dry-Bulb Temperature Range {deltaC}
  -5.5,                                   ! Humidity Indicating Conditions at Maximum Dry-Bulb {BasedOnField A3}
  98675,                                  ! Barometric Pressure {Pa}
  12.1,                                   ! Wind Speed {m/s}
  290,                                    ! Wind Direction {deg}
  0,                                      ! Sky Clearness
  0,                                      ! Rain Indicator
  0,                                      ! Snow Indicator
  21,                                     ! Day of Month
  1,                                      ! Month
  WinterDesignDay,                        ! Day Type
  0,                                      ! Daylight Saving Time Indicator
  Wetbulb,                                ! Humidity Indicating Type
  ,                                       ! Humidity Indicating Day Schedule Name
  DefaultMultipliers,                     ! Dry-Bulb Temperature Range Modifier Type
  ,                                       ! Dry-Bulb Temperature Range Modifier Schedule Name
  ASHRAEClearSky;                         ! Solar Model Indicator

OS:ComponentData,
  {aec0c9cc-95fe-4026-a684-1e9fe4fab535}, ! Handle
  Component Data 1,                       ! Name
  {0766ddfa-7cd2-440d-bbb4-f8c166939a4a}, ! UUID
  {3e7fbf2f-3fc8-4779-82e8-9448402ec382}, ! Version UUID
  1366307391,                             ! Creation Timestamp
  1366307391,                             ! Version Timestamp
  {007dd725-cb89-4d5f-a81c-33aac7b02bd0}; ! Name of Object 1

