
OS:Version,
  {3cab597c-cb92-4638-b6cd-e1d1fcb5c38a}, ! Handle
  0.9.3;                                  ! Version Identifier

OS:SizingPeriod:DesignDay,
  {e3b7dc2d-9128-4825-b641-8e57e80d11b7}, ! Handle
  Tucson Ann Clg 1% Condns Enth=>MDB,     ! Name
  31,                                     ! Maximum Dry-Bulb Temperature {C}
  13.8,                                   ! Daily Dry-Bulb Temperature Range {deltaC}
  68200,                                  ! Humidity Indicating Conditions at Maximum Dry-Bulb {BasedOnField A3}
  92310,                                  ! Barometric Pressure {Pa}
  5,                                      ! Wind Speed {m/s}
  300,                                    ! Wind Direction {deg}
  0,                                      ! Sky Clearness
  0,                                      ! Rain Indicator
  0,                                      ! Snow Indicator
  21,                                     ! Day of Month
  7,                                      ! Month
  SummerDesignDay,                        ! Day Type
  0,                                      ! Daylight Saving Time Indicator
  Enthalpy,                               ! Humidity Indicating Type
  ,                                       ! Humidity Indicating Day Schedule Name
  DefaultMultipliers,                     ! Dry-Bulb Temperature Range Modifier Type
  ,                                       ! Dry-Bulb Temperature Range Modifier Schedule Name
  ASHRAETau,                              ! Solar Model Indicator
  ,                                       ! Beam Solar Day Schedule Name
  ,                                       ! Diffuse Solar Day Schedule Name
  0.555,                                  ! ASHRAE Taub {dimensionless}
  1.73;                                   ! ASHRAE Taud {dimensionless}

