
OS:Version,
  {8abee396-c80a-4f3c-8629-5bca75b81d87}, ! Handle
  0.9.3;                                  ! Version Identifier

OS:SizingPeriod:DesignDay,
  {9cb7fc61-0491-4ae1-8c95-50568f66291c}, ! Handle
  Minneapolis Crystal Ann Clg 2% Condns WB=>MDB, ! Name
  28,                                     ! Maximum Dry-Bulb Temperature {C}
  10.7,                                   ! Daily Dry-Bulb Temperature Range {deltaC}
  22.8,                                   ! Humidity Indicating Conditions at Maximum Dry-Bulb {BasedOnField A3}
  98182,                                  ! Barometric Pressure {Pa}
  5.7,                                    ! Wind Speed {m/s}
  190,                                    ! Wind Direction {deg}
  0,                                      ! Sky Clearness
  0,                                      ! Rain Indicator
  0,                                      ! Snow Indicator
  21,                                     ! Day of Month
  7,                                      ! Month
  SummerDesignDay,                        ! Day Type
  0,                                      ! Daylight Saving Time Indicator
  Wetbulb,                                ! Humidity Indicating Type
  ,                                       ! Humidity Indicating Day Schedule Name
  DefaultMultipliers,                     ! Dry-Bulb Temperature Range Modifier Type
  ,                                       ! Dry-Bulb Temperature Range Modifier Schedule Name
  ASHRAETau,                              ! Solar Model Indicator
  ,                                       ! Beam Solar Day Schedule Name
  ,                                       ! Diffuse Solar Day Schedule Name
  0.415,                                  ! ASHRAE Taub {dimensionless}
  2.179;                                  ! ASHRAE Taud {dimensionless}

OS:ComponentData,
  {bdc6f347-e03c-40b5-b35c-5cf8ba0e7eba}, ! Handle
  Component Data 1,                       ! Name
  {7a950c28-5198-4002-8da5-3eca7316f744}, ! UUID
  {56823716-9775-4f8a-aff1-8972a1e58a2a}, ! Version UUID
  1366308306,                             ! Creation Timestamp
  1366308306,                             ! Version Timestamp
  {9cb7fc61-0491-4ae1-8c95-50568f66291c}; ! Name of Object 1

