
OS:Version,
  {f43e4ca2-34e7-4815-9b86-1acbf8b51311}, ! Handle
  0.9.3;                                  ! Version Identifier

OS:SizingPeriod:DesignDay,
  {8868f01f-3a58-4713-ae61-ec199958b633}, ! Handle
  Oklahoma City Tinker Afb Ann Hum_n 99% Condns DP=>MCDB, ! Name
  -5.6,                                   ! Maximum Dry-Bulb Temperature {C}
  0,                                      ! Daily Dry-Bulb Temperature Range {deltaC}
  -13.9,                                  ! Humidity Indicating Conditions at Maximum Dry-Bulb {BasedOnField A3}
  96796,                                  ! Barometric Pressure {Pa}
  5.3,                                    ! Wind Speed {m/s}
  10,                                     ! Wind Direction {deg}
  0,                                      ! Sky Clearness
  0,                                      ! Rain Indicator
  0,                                      ! Snow Indicator
  21,                                     ! Day of Month
  1,                                      ! Month
  WinterDesignDay,                        ! Day Type
  0,                                      ! Daylight Saving Time Indicator
  Dewpoint,                               ! Humidity Indicating Type
  ,                                       ! Humidity Indicating Day Schedule Name
  DefaultMultipliers,                     ! Dry-Bulb Temperature Range Modifier Type
  ,                                       ! Dry-Bulb Temperature Range Modifier Schedule Name
  ASHRAEClearSky;                         ! Solar Model Indicator

OS:ComponentData,
  {933b5678-5030-474d-bca9-490b4aee2cba}, ! Handle
  Component Data 1,                       ! Name
  {08fbb388-6ac4-4c28-a27d-5f4386f23dd4}, ! UUID
  {d504f6ad-fb4b-452a-9295-f204bc16b6c5}, ! Version UUID
  1366309912,                             ! Creation Timestamp
  1366309912,                             ! Version Timestamp
  {8868f01f-3a58-4713-ae61-ec199958b633}; ! Name of Object 1

