
OS:Version,
  {d796c5ae-fd2f-44c9-9b13-bf6e6bd18c77}, ! Handle
  0.9.3;                                  ! Version Identifier

OS:SizingPeriod:DesignDay,
  {4b53fe7b-9d5e-418f-b41a-db148eefa684}, ! Handle
  MOLINE Ann Htg Wind 99.6% Condns WS=>MCDB, ! Name
  -7.3,                                   ! Maximum Dry-Bulb Temperature {C}
  0,                                      ! Daily Dry-Bulb Temperature Range {deltaC}
  -7.3,                                   ! Humidity Indicating Conditions at Maximum Dry-Bulb {BasedOnField A3}
  99169,                                  ! Barometric Pressure {Pa}
  13.4,                                   ! Wind Speed {m/s}
  280,                                    ! Wind Direction {deg}
  0,                                      ! Sky Clearness
  0,                                      ! Rain Indicator
  0,                                      ! Snow Indicator
  21,                                     ! Day of Month
  1,                                      ! Month
  WinterDesignDay,                        ! Day Type
  0,                                      ! Daylight Saving Time Indicator
  Wetbulb,                                ! Humidity Indicating Type
  ,                                       ! Humidity Indicating Day Schedule Name
  DefaultMultipliers,                     ! Dry-Bulb Temperature Range Modifier Type
  ,                                       ! Dry-Bulb Temperature Range Modifier Schedule Name
  ASHRAEClearSky;                         ! Solar Model Indicator

OS:ComponentData,
  {e270f69e-a42d-4066-87c5-b55408bcb647}, ! Handle
  Component Data 1,                       ! Name
  {5877a0b6-f22a-4fd3-a286-385f0ed9f9d6}, ! UUID
  {b7bb308b-5329-42d9-9317-b37e5d1a985e}, ! Version UUID
  1366307372,                             ! Creation Timestamp
  1366307372,                             ! Version Timestamp
  {4b53fe7b-9d5e-418f-b41a-db148eefa684}; ! Name of Object 1

