
OS:Version,
  {77e88bf8-1da8-47b6-b3d5-7564854c2d95}, ! Handle
  0.9.3;                                  ! Version Identifier

OS:SizingPeriod:DesignDay,
  {e0acc646-e329-4347-884a-19f5e9e618b9}, ! Handle
  Stuttgart  Awos Ann Clg 2% Condns WB=>MDB, ! Name
  31.5,                                   ! Maximum Dry-Bulb Temperature {C}
  9.6,                                    ! Daily Dry-Bulb Temperature Range {deltaC}
  25.7,                                   ! Humidity Indicating Conditions at Maximum Dry-Bulb {BasedOnField A3}
  100511,                                 ! Barometric Pressure {Pa}
  3.7,                                    ! Wind Speed {m/s}
  220,                                    ! Wind Direction {deg}
  0,                                      ! Sky Clearness
  0,                                      ! Rain Indicator
  0,                                      ! Snow Indicator
  21,                                     ! Day of Month
  7,                                      ! Month
  SummerDesignDay,                        ! Day Type
  0,                                      ! Daylight Saving Time Indicator
  Wetbulb,                                ! Humidity Indicating Type
  ,                                       ! Humidity Indicating Day Schedule Name
  DefaultMultipliers,                     ! Dry-Bulb Temperature Range Modifier Type
  ,                                       ! Dry-Bulb Temperature Range Modifier Schedule Name
  ASHRAETau,                              ! Solar Model Indicator
  ,                                       ! Beam Solar Day Schedule Name
  ,                                       ! Diffuse Solar Day Schedule Name
  0.515,                                  ! ASHRAE Taub {dimensionless}
  1.894;                                  ! ASHRAE Taud {dimensionless}

OS:ComponentData,
  {9a3699c1-a195-4099-b666-7e21ad5cc8a7}, ! Handle
  Component Data 1,                       ! Name
  {234615e0-a068-4994-92cb-23031e639b4a}, ! UUID
  {d16dbe83-cd2d-4cd4-bb2f-74d0a89632ad}, ! Version UUID
  1366306249,                             ! Creation Timestamp
  1366306249,                             ! Version Timestamp
  {e0acc646-e329-4347-884a-19f5e9e618b9}; ! Name of Object 1

