
OS:Version,
  {d948c177-b385-41ac-bb91-795ef02a8485}, ! Handle
  0.9.3;                                  ! Version Identifier

OS:SizingPeriod:DesignDay,
  {10c213b7-9075-4169-a314-05de40b190b2}, ! Handle
  Toledo Express Airport Ann Clg 1% Condns DP=>MDB, ! Name
  27.1,                                   ! Maximum Dry-Bulb Temperature {C}
  11.5,                                   ! Daily Dry-Bulb Temperature Range {deltaC}
  22.6,                                   ! Humidity Indicating Conditions at Maximum Dry-Bulb {BasedOnField A3}
  98898,                                  ! Barometric Pressure {Pa}
  4.8,                                    ! Wind Speed {m/s}
  230,                                    ! Wind Direction {deg}
  0,                                      ! Sky Clearness
  0,                                      ! Rain Indicator
  0,                                      ! Snow Indicator
  21,                                     ! Day of Month
  7,                                      ! Month
  SummerDesignDay,                        ! Day Type
  0,                                      ! Daylight Saving Time Indicator
  Dewpoint,                               ! Humidity Indicating Type
  ,                                       ! Humidity Indicating Day Schedule Name
  DefaultMultipliers,                     ! Dry-Bulb Temperature Range Modifier Type
  ,                                       ! Dry-Bulb Temperature Range Modifier Schedule Name
  ASHRAETau,                              ! Solar Model Indicator
  ,                                       ! Beam Solar Day Schedule Name
  ,                                       ! Diffuse Solar Day Schedule Name
  0.45,                                   ! ASHRAE Taub {dimensionless}
  2.065;                                  ! ASHRAE Taud {dimensionless}

OS:ComponentData,
  {0bfd8978-5ba7-451b-82e0-46d319fa3f71}, ! Handle
  Component Data 1,                       ! Name
  {eb6bc936-95d9-4ba2-972e-8cc1e7005ef5}, ! UUID
  {bbe66f33-aae8-4e95-a3a6-b7ebd95b210d}, ! Version UUID
  1366309856,                             ! Creation Timestamp
  1366309856,                             ! Version Timestamp
  {10c213b7-9075-4169-a314-05de40b190b2}; ! Name of Object 1

