
OS:Version,
  {3b6dc54b-f19e-443d-a6ba-d4270fda8ed8}, ! Handle
  0.9.3;                                  ! Version Identifier

OS:SizingPeriod:DesignDay,
  {ef769daf-1d38-4615-8f6e-97bcdbd4dc3a}, ! Handle
  Worchester Regional Arpt Ann Hum_n 99.6% Condns DP=>MCDB, ! Name
  -14.8,                                  ! Maximum Dry-Bulb Temperature {C}
  0,                                      ! Daily Dry-Bulb Temperature Range {deltaC}
  -25.5,                                  ! Humidity Indicating Conditions at Maximum Dry-Bulb {BasedOnField A3}
  97773,                                  ! Barometric Pressure {Pa}
  6,                                      ! Wind Speed {m/s}
  280,                                    ! Wind Direction {deg}
  0,                                      ! Sky Clearness
  0,                                      ! Rain Indicator
  0,                                      ! Snow Indicator
  21,                                     ! Day of Month
  1,                                      ! Month
  WinterDesignDay,                        ! Day Type
  0,                                      ! Daylight Saving Time Indicator
  Dewpoint,                               ! Humidity Indicating Type
  ,                                       ! Humidity Indicating Day Schedule Name
  DefaultMultipliers,                     ! Dry-Bulb Temperature Range Modifier Type
  ,                                       ! Dry-Bulb Temperature Range Modifier Schedule Name
  ASHRAEClearSky;                         ! Solar Model Indicator

OS:ComponentData,
  {bc44f357-1d53-4d2b-beb8-ed4891228836}, ! Handle
  Component Data 1,                       ! Name
  {8d226b33-9b74-4269-8a81-747faadc2d8b}, ! UUID
  {c87b9277-4f52-4c57-8231-d560282799ed}, ! Version UUID
  1366307830,                             ! Creation Timestamp
  1366307830,                             ! Version Timestamp
  {ef769daf-1d38-4615-8f6e-97bcdbd4dc3a}; ! Name of Object 1

