
OS:Version,
  {0fb09116-3ac7-49be-b2e0-990b07f6ba8a}, ! Handle
  0.9.3;                                  ! Version Identifier

OS:SizingPeriod:DesignDay,
  {f6de361c-628d-4e34-b221-389caede4421}, ! Handle
  Richmond Ann Clg 1% Condns Enth=>MDB,   ! Name
  31,                                     ! Maximum Dry-Bulb Temperature {C}
  10.4,                                   ! Daily Dry-Bulb Temperature Range {deltaC}
  77400,                                  ! Humidity Indicating Conditions at Maximum Dry-Bulb {BasedOnField A3}
  100678,                                 ! Barometric Pressure {Pa}
  4.5,                                    ! Wind Speed {m/s}
  230,                                    ! Wind Direction {deg}
  0,                                      ! Sky Clearness
  0,                                      ! Rain Indicator
  0,                                      ! Snow Indicator
  21,                                     ! Day of Month
  7,                                      ! Month
  SummerDesignDay,                        ! Day Type
  0,                                      ! Daylight Saving Time Indicator
  Enthalpy,                               ! Humidity Indicating Type
  ,                                       ! Humidity Indicating Day Schedule Name
  DefaultMultipliers,                     ! Dry-Bulb Temperature Range Modifier Type
  ,                                       ! Dry-Bulb Temperature Range Modifier Schedule Name
  ASHRAETau,                              ! Solar Model Indicator
  ,                                       ! Beam Solar Day Schedule Name
  ,                                       ! Diffuse Solar Day Schedule Name
  0.567,                                  ! ASHRAE Taub {dimensionless}
  1.742;                                  ! ASHRAE Taud {dimensionless}

OS:ComponentData,
  {5efcfb82-bdf8-4979-838a-fbd82dfaf492}, ! Handle
  Component Data 1,                       ! Name
  {b391ca24-a437-4883-8b86-555b0f41fb3c}, ! UUID
  {4ebdcdbd-8b4a-4b24-bc34-d008fa35848e}, ! Version UUID
  1366311171,                             ! Creation Timestamp
  1366311171,                             ! Version Timestamp
  {f6de361c-628d-4e34-b221-389caede4421}; ! Name of Object 1

