
OS:Version,
  {57393bf6-9ea7-4e03-908a-2d9cbf3c1555}, ! Handle
  0.9.3;                                  ! Version Identifier

OS:SizingPeriod:DesignDay,
  {a4125a04-cbc8-4f7a-b4a8-bc21c0c858af}, ! Handle
  Vichy Rolla Natl Arpt Ann Clg 2% Condns DB=>MWB, ! Name
  32,                                     ! Maximum Dry-Bulb Temperature {C}
  11.1,                                   ! Daily Dry-Bulb Temperature Range {deltaC}
  23.4,                                   ! Humidity Indicating Conditions at Maximum Dry-Bulb {BasedOnField A3}
  97353,                                  ! Barometric Pressure {Pa}
  4.1,                                    ! Wind Speed {m/s}
  230,                                    ! Wind Direction {deg}
  0,                                      ! Sky Clearness
  0,                                      ! Rain Indicator
  0,                                      ! Snow Indicator
  21,                                     ! Day of Month
  7,                                      ! Month
  SummerDesignDay,                        ! Day Type
  0,                                      ! Daylight Saving Time Indicator
  Wetbulb,                                ! Humidity Indicating Type
  ,                                       ! Humidity Indicating Day Schedule Name
  DefaultMultipliers,                     ! Dry-Bulb Temperature Range Modifier Type
  ,                                       ! Dry-Bulb Temperature Range Modifier Schedule Name
  ASHRAETau,                              ! Solar Model Indicator
  ,                                       ! Beam Solar Day Schedule Name
  ,                                       ! Diffuse Solar Day Schedule Name
  0.446,                                  ! ASHRAE Taub {dimensionless}
  2.105;                                  ! ASHRAE Taud {dimensionless}

OS:ComponentData,
  {2cbaf95e-5560-494c-82f7-c0ec0beb5eb2}, ! Handle
  Component Data 1,                       ! Name
  {c1c1f98d-898b-4645-bd4d-8838080542d9}, ! UUID
  {61e21114-3679-47ff-aceb-5cdbed7cbf2a}, ! Version UUID
  1366308550,                             ! Creation Timestamp
  1366308550,                             ! Version Timestamp
  {a4125a04-cbc8-4f7a-b4a8-bc21c0c858af}; ! Name of Object 1

