
OS:Version,
  {b45a0449-7a52-4c6c-af6e-e1cdfdd1937a}, ! Handle
  0.9.3;                                  ! Version Identifier

OS:SizingPeriod:DesignDay,
  {ca89a374-0b04-40f6-b46f-9a7d7031b4e2}, ! Handle
  Richmond Ann Clg .4% Condns DB=>MWB,    ! Name
  34.9,                                   ! Maximum Dry-Bulb Temperature {C}
  10.4,                                   ! Daily Dry-Bulb Temperature Range {deltaC}
  24.5,                                   ! Humidity Indicating Conditions at Maximum Dry-Bulb {BasedOnField A3}
  100678,                                 ! Barometric Pressure {Pa}
  4.5,                                    ! Wind Speed {m/s}
  230,                                    ! Wind Direction {deg}
  0,                                      ! Sky Clearness
  0,                                      ! Rain Indicator
  0,                                      ! Snow Indicator
  21,                                     ! Day of Month
  7,                                      ! Month
  SummerDesignDay,                        ! Day Type
  0,                                      ! Daylight Saving Time Indicator
  Wetbulb,                                ! Humidity Indicating Type
  ,                                       ! Humidity Indicating Day Schedule Name
  DefaultMultipliers,                     ! Dry-Bulb Temperature Range Modifier Type
  ,                                       ! Dry-Bulb Temperature Range Modifier Schedule Name
  ASHRAETau,                              ! Solar Model Indicator
  ,                                       ! Beam Solar Day Schedule Name
  ,                                       ! Diffuse Solar Day Schedule Name
  0.567,                                  ! ASHRAE Taub {dimensionless}
  1.742;                                  ! ASHRAE Taud {dimensionless}

OS:ComponentData,
  {70451a56-b244-4683-9152-3d1209aabe50}, ! Handle
  Component Data 1,                       ! Name
  {cd25fa61-9cdd-4260-9347-fb391c40dc81}, ! UUID
  {a31bf6b6-8182-415f-817f-0f5f55161d26}, ! Version UUID
  1366311169,                             ! Creation Timestamp
  1366311169,                             ! Version Timestamp
  {ca89a374-0b04-40f6-b46f-9a7d7031b4e2}; ! Name of Object 1

