
OS:Version,
  {f07418c0-72f6-4c62-87c6-2e1449e92bcd}, ! Handle
  0.9.3;                                  ! Version Identifier

OS:SizingPeriod:DesignDay,
  {5f113faa-9587-49be-9a5b-963e54f7f1e3}, ! Handle
  Olathe Johnson Co Ann Clg .4% Condns DP=>MDB, ! Name
  29.7,                                   ! Maximum Dry-Bulb Temperature {C}
  10.1,                                   ! Daily Dry-Bulb Temperature Range {deltaC}
  24.1,                                   ! Humidity Indicating Conditions at Maximum Dry-Bulb {BasedOnField A3}
  97376,                                  ! Barometric Pressure {Pa}
  4.7,                                    ! Wind Speed {m/s}
  210,                                    ! Wind Direction {deg}
  0,                                      ! Sky Clearness
  0,                                      ! Rain Indicator
  0,                                      ! Snow Indicator
  21,                                     ! Day of Month
  7,                                      ! Month
  SummerDesignDay,                        ! Day Type
  0,                                      ! Daylight Saving Time Indicator
  Dewpoint,                               ! Humidity Indicating Type
  ,                                       ! Humidity Indicating Day Schedule Name
  DefaultMultipliers,                     ! Dry-Bulb Temperature Range Modifier Type
  ,                                       ! Dry-Bulb Temperature Range Modifier Schedule Name
  ASHRAETau,                              ! Solar Model Indicator
  ,                                       ! Beam Solar Day Schedule Name
  ,                                       ! Diffuse Solar Day Schedule Name
  0.436,                                  ! ASHRAE Taub {dimensionless}
  2.149;                                  ! ASHRAE Taud {dimensionless}

OS:ComponentData,
  {3e4f1b3f-117c-4a8e-a4f2-a816b749c478}, ! Handle
  Component Data 1,                       ! Name
  {b3217b21-3a25-44bc-9e81-1e19755e3c30}, ! UUID
  {7e9ec7a1-c453-47b6-87e8-b9040d411424}, ! Version UUID
  1366307567,                             ! Creation Timestamp
  1366307567,                             ! Version Timestamp
  {5f113faa-9587-49be-9a5b-963e54f7f1e3}; ! Name of Object 1

