
OS:Version,
  {949d2350-73b6-4325-8e5e-117d1ac0f9e3}, ! Handle
  0.9.3;                                  ! Version Identifier

OS:SizingPeriod:DesignDay,
  {8f67af72-9bb7-48f3-9602-2b23f5aec277}, ! Handle
  Olympia Airport Ann Htg 99.6% Condns DB, ! Name
  -6.6,                                   ! Maximum Dry-Bulb Temperature {C}
  0,                                      ! Daily Dry-Bulb Temperature Range {deltaC}
  -6.6,                                   ! Humidity Indicating Conditions at Maximum Dry-Bulb {BasedOnField A3}
  100570,                                 ! Barometric Pressure {Pa}
  1.6,                                    ! Wind Speed {m/s}
  40,                                     ! Wind Direction {deg}
  0,                                      ! Sky Clearness
  0,                                      ! Rain Indicator
  0,                                      ! Snow Indicator
  21,                                     ! Day of Month
  12,                                     ! Month
  WinterDesignDay,                        ! Day Type
  0,                                      ! Daylight Saving Time Indicator
  Wetbulb,                                ! Humidity Indicating Type
  ,                                       ! Humidity Indicating Day Schedule Name
  DefaultMultipliers,                     ! Dry-Bulb Temperature Range Modifier Type
  ,                                       ! Dry-Bulb Temperature Range Modifier Schedule Name
  ASHRAEClearSky;                         ! Solar Model Indicator

OS:ComponentData,
  {9531e766-9fe5-4281-85a3-197a2e870384}, ! Handle
  Component Data 1,                       ! Name
  {e3ee920d-5247-49ce-8826-d0d9ea27130f}, ! UUID
  {4f3a9fd2-d57b-4de8-8b72-04fe908cfdb2}, ! Version UUID
  1366311313,                             ! Creation Timestamp
  1366311313,                             ! Version Timestamp
  {8f67af72-9bb7-48f3-9602-2b23f5aec277}; ! Name of Object 1

