
OS:Version,
  {351fc9ea-a237-41ee-af61-a79d09d3ee0f}, ! Handle
  0.9.3;                                  ! Version Identifier

OS:SizingPeriod:DesignDay,
  {2ae5be4f-0d1d-48b1-bc97-dd92923c7310}, ! Handle
  SIOUX_FALLS Ann Clg 1% Condns DP=>MDB,  ! Name
  27.7,                                   ! Maximum Dry-Bulb Temperature {C}
  11.5,                                   ! Daily Dry-Bulb Temperature Range {deltaC}
  22.4,                                   ! Humidity Indicating Conditions at Maximum Dry-Bulb {BasedOnField A3}
  96207,                                  ! Barometric Pressure {Pa}
  6.5,                                    ! Wind Speed {m/s}
  180,                                    ! Wind Direction {deg}
  0,                                      ! Sky Clearness
  0,                                      ! Rain Indicator
  0,                                      ! Snow Indicator
  21,                                     ! Day of Month
  7,                                      ! Month
  SummerDesignDay,                        ! Day Type
  0,                                      ! Daylight Saving Time Indicator
  Dewpoint,                               ! Humidity Indicating Type
  ,                                       ! Humidity Indicating Day Schedule Name
  DefaultMultipliers,                     ! Dry-Bulb Temperature Range Modifier Type
  ,                                       ! Dry-Bulb Temperature Range Modifier Schedule Name
  ASHRAETau,                              ! Solar Model Indicator
  ,                                       ! Beam Solar Day Schedule Name
  ,                                       ! Diffuse Solar Day Schedule Name
  0.392,                                  ! ASHRAE Taub {dimensionless}
  2.283;                                  ! ASHRAE Taud {dimensionless}

OS:ComponentData,
  {4bd7a8fd-f7a7-4293-bef8-b071b761c855}, ! Handle
  Component Data 1,                       ! Name
  {77b7285a-4105-4332-a5b0-e2c35fb2c9d5}, ! UUID
  {774de685-bc47-46c2-8a58-d81ff15ae002}, ! Version UUID
  1366310464,                             ! Creation Timestamp
  1366310464,                             ! Version Timestamp
  {2ae5be4f-0d1d-48b1-bc97-dd92923c7310}; ! Name of Object 1

