
OS:Version,
  {7a74e762-e472-4195-ad02-e2f932fc47f2}, ! Handle
  0.9.3;                                  ! Version Identifier

OS:SizingPeriod:DesignDay,
  {1efa5af7-9d7f-4e6e-89a8-de70f31bab31}, ! Handle
  Moody Afb Valdosta Ann Htg Wind 99.6% Condns WS=>MCDB, ! Name
  10.3,                                   ! Maximum Dry-Bulb Temperature {C}
  0,                                      ! Daily Dry-Bulb Temperature Range {deltaC}
  10.3,                                   ! Humidity Indicating Conditions at Maximum Dry-Bulb {BasedOnField A3}
  100475,                                 ! Barometric Pressure {Pa}
  8.7,                                    ! Wind Speed {m/s}
  0,                                      ! Wind Direction {deg}
  0,                                      ! Sky Clearness
  0,                                      ! Rain Indicator
  0,                                      ! Snow Indicator
  21,                                     ! Day of Month
  1,                                      ! Month
  WinterDesignDay,                        ! Day Type
  0,                                      ! Daylight Saving Time Indicator
  Wetbulb,                                ! Humidity Indicating Type
  ,                                       ! Humidity Indicating Day Schedule Name
  DefaultMultipliers,                     ! Dry-Bulb Temperature Range Modifier Type
  ,                                       ! Dry-Bulb Temperature Range Modifier Schedule Name
  ASHRAEClearSky;                         ! Solar Model Indicator

OS:ComponentData,
  {0d7e09ab-bf25-4a8a-ad8a-cce38364d128}, ! Handle
  Component Data 1,                       ! Name
  {ba443470-d3f3-44a4-baad-7df59fa81552}, ! UUID
  {4e838169-4d81-4d97-a899-3351dd345481}, ! Version UUID
  1366307059,                             ! Creation Timestamp
  1366307059,                             ! Version Timestamp
  {1efa5af7-9d7f-4e6e-89a8-de70f31bab31}; ! Name of Object 1

