
OS:Version,
  {af90a50c-cacf-4f0b-bab8-88790fac6117}, ! Handle
  0.9.3;                                  ! Version Identifier

OS:SizingPeriod:DesignDay,
  {00392ff1-2e01-42a8-b912-77681747412e}, ! Handle
  Montrose Co  Arpt Ann Clg .4% Condns DB=>MWB, ! Name
  34.1,                                   ! Maximum Dry-Bulb Temperature {C}
  16.9,                                   ! Daily Dry-Bulb Temperature Range {deltaC}
  15.5,                                   ! Humidity Indicating Conditions at Maximum Dry-Bulb {BasedOnField A3}
  81943,                                  ! Barometric Pressure {Pa}
  4.1,                                    ! Wind Speed {m/s}
  340,                                    ! Wind Direction {deg}
  0,                                      ! Sky Clearness
  0,                                      ! Rain Indicator
  0,                                      ! Snow Indicator
  21,                                     ! Day of Month
  7,                                      ! Month
  SummerDesignDay,                        ! Day Type
  0,                                      ! Daylight Saving Time Indicator
  Wetbulb,                                ! Humidity Indicating Type
  ,                                       ! Humidity Indicating Day Schedule Name
  DefaultMultipliers,                     ! Dry-Bulb Temperature Range Modifier Type
  ,                                       ! Dry-Bulb Temperature Range Modifier Schedule Name
  ASHRAETau,                              ! Solar Model Indicator
  ,                                       ! Beam Solar Day Schedule Name
  ,                                       ! Diffuse Solar Day Schedule Name
  0.4,                                    ! ASHRAE Taub {dimensionless}
  2.143;                                  ! ASHRAE Taud {dimensionless}

OS:ComponentData,
  {de2645f0-20d7-4ee3-b7cd-0ae0136afc76}, ! Handle
  Component Data 1,                       ! Name
  {c8e8a715-0a9e-4fbd-8e24-98a2959c17e7}, ! UUID
  {fc0e11ca-7b5e-4186-b82f-38ebfad4c9e3}, ! Version UUID
  1366306723,                             ! Creation Timestamp
  1366306723,                             ! Version Timestamp
  {00392ff1-2e01-42a8-b912-77681747412e}; ! Name of Object 1

