
OS:Version,
  {4a99e4c6-8ef0-4c59-9ff1-320a0ceeccb5}, ! Handle
  0.9.3;                                  ! Version Identifier

OS:SizingPeriod:DesignDay,
  {0ed50140-cdf9-4978-8ddd-e203579f5621}, ! Handle
  Sandberg Ann Htg 99% Condns DB,         ! Name
  -2.1,                                   ! Maximum Dry-Bulb Temperature {C}
  0,                                      ! Daily Dry-Bulb Temperature Range {deltaC}
  -2.1,                                   ! Humidity Indicating Conditions at Maximum Dry-Bulb {BasedOnField A3}
  85840,                                  ! Barometric Pressure {Pa}
  6.7,                                    ! Wind Speed {m/s}
  340,                                    ! Wind Direction {deg}
  0,                                      ! Sky Clearness
  0,                                      ! Rain Indicator
  0,                                      ! Snow Indicator
  21,                                     ! Day of Month
  12,                                     ! Month
  WinterDesignDay,                        ! Day Type
  0,                                      ! Daylight Saving Time Indicator
  Wetbulb,                                ! Humidity Indicating Type
  ,                                       ! Humidity Indicating Day Schedule Name
  DefaultMultipliers,                     ! Dry-Bulb Temperature Range Modifier Type
  ,                                       ! Dry-Bulb Temperature Range Modifier Schedule Name
  ASHRAEClearSky;                         ! Solar Model Indicator

OS:ComponentData,
  {33fcf88e-17b9-48e3-9199-6f5da03640d8}, ! Handle
  Component Data 1,                       ! Name
  {c0624479-3341-4346-ae81-f5f0a8ac8566}, ! UUID
  {602213fd-413e-4d5c-8364-84f2425e4fb8}, ! Version UUID
  1366306603,                             ! Creation Timestamp
  1366306603,                             ! Version Timestamp
  {0ed50140-cdf9-4978-8ddd-e203579f5621}; ! Name of Object 1

