
OS:Version,
  {313c6bdc-a0ef-4209-9588-a1694cd4621f}, ! Handle
  0.9.3;                                  ! Version Identifier

OS:SizingPeriod:DesignDay,
  {87b48587-51a6-43f4-82de-3013ca1b4fcf}, ! Handle
  Saint George  Awos Ann Clg 1% Condns DP=>MDB, ! Name
  25.7,                                   ! Maximum Dry-Bulb Temperature {C}
  14.3,                                   ! Daily Dry-Bulb Temperature Range {deltaC}
  15.2,                                   ! Humidity Indicating Conditions at Maximum Dry-Bulb {BasedOnField A3}
  91014,                                  ! Barometric Pressure {Pa}
  6.6,                                    ! Wind Speed {m/s}
  250,                                    ! Wind Direction {deg}
  0,                                      ! Sky Clearness
  0,                                      ! Rain Indicator
  0,                                      ! Snow Indicator
  21,                                     ! Day of Month
  7,                                      ! Month
  SummerDesignDay,                        ! Day Type
  0,                                      ! Daylight Saving Time Indicator
  Dewpoint,                               ! Humidity Indicating Type
  ,                                       ! Humidity Indicating Day Schedule Name
  DefaultMultipliers,                     ! Dry-Bulb Temperature Range Modifier Type
  ,                                       ! Dry-Bulb Temperature Range Modifier Schedule Name
  ASHRAETau,                              ! Solar Model Indicator
  ,                                       ! Beam Solar Day Schedule Name
  ,                                       ! Diffuse Solar Day Schedule Name
  0.485,                                  ! ASHRAE Taub {dimensionless}
  1.844;                                  ! ASHRAE Taud {dimensionless}

