
OS:Version,
  {09b24bb6-1ff5-46ba-828d-f4e319881c01}, ! Handle
  0.9.3;                                  ! Version Identifier

OS:SizingPeriod:DesignDay,
  {78a13100-5672-442a-ae79-ee1623459f33}, ! Handle
  Midland/Odessa Ann Clg 1% Condns Enth=>MDB, ! Name
  30.3,                                   ! Maximum Dry-Bulb Temperature {C}
  13.1,                                   ! Daily Dry-Bulb Temperature Range {deltaC}
  69800,                                  ! Humidity Indicating Conditions at Maximum Dry-Bulb {BasedOnField A3}
  91279,                                  ! Barometric Pressure {Pa}
  5.7,                                    ! Wind Speed {m/s}
  150,                                    ! Wind Direction {deg}
  0,                                      ! Sky Clearness
  0,                                      ! Rain Indicator
  0,                                      ! Snow Indicator
  21,                                     ! Day of Month
  7,                                      ! Month
  SummerDesignDay,                        ! Day Type
  0,                                      ! Daylight Saving Time Indicator
  Enthalpy,                               ! Humidity Indicating Type
  ,                                       ! Humidity Indicating Day Schedule Name
  DefaultMultipliers,                     ! Dry-Bulb Temperature Range Modifier Type
  ,                                       ! Dry-Bulb Temperature Range Modifier Schedule Name
  ASHRAETau,                              ! Solar Model Indicator
  ,                                       ! Beam Solar Day Schedule Name
  ,                                       ! Diffuse Solar Day Schedule Name
  0.443,                                  ! ASHRAE Taub {dimensionless}
  2.032;                                  ! ASHRAE Taud {dimensionless}

OS:ComponentData,
  {11c14029-12c5-4efc-b02e-dd67e30ef72f}, ! Handle
  Component Data 1,                       ! Name
  {ade78ae9-5b29-4a41-8092-3d2e82186083}, ! UUID
  {b11c20df-3623-4c41-88c5-83a8c3061313}, ! Version UUID
  1366310832,                             ! Creation Timestamp
  1366310832,                             ! Version Timestamp
  {78a13100-5672-442a-ae79-ee1623459f33}; ! Name of Object 1

