
OS:Version,
  {b1855205-644e-4bf3-811a-4b858dd4936b}, ! Handle
  0.9.3;                                  ! Version Identifier

OS:SizingPeriod:DesignDay,
  {b8a0c48a-022e-4969-aada-20a8c02e9960}, ! Handle
  Omaha/Eppley Airfield Ann Clg .4% Condns DB=>MWB, ! Name
  35,                                     ! Maximum Dry-Bulb Temperature {C}
  11,                                     ! Daily Dry-Bulb Temperature Range {deltaC}
  24.5,                                   ! Humidity Indicating Conditions at Maximum Dry-Bulb {BasedOnField A3}
  97784,                                  ! Barometric Pressure {Pa}
  6.1,                                    ! Wind Speed {m/s}
  180,                                    ! Wind Direction {deg}
  0,                                      ! Sky Clearness
  0,                                      ! Rain Indicator
  0,                                      ! Snow Indicator
  21,                                     ! Day of Month
  7,                                      ! Month
  SummerDesignDay,                        ! Day Type
  0,                                      ! Daylight Saving Time Indicator
  Wetbulb,                                ! Humidity Indicating Type
  ,                                       ! Humidity Indicating Day Schedule Name
  DefaultMultipliers,                     ! Dry-Bulb Temperature Range Modifier Type
  ,                                       ! Dry-Bulb Temperature Range Modifier Schedule Name
  ASHRAETau,                              ! Solar Model Indicator
  ,                                       ! Beam Solar Day Schedule Name
  ,                                       ! Diffuse Solar Day Schedule Name
  0.421,                                  ! ASHRAE Taub {dimensionless}
  2.196;                                  ! ASHRAE Taud {dimensionless}

OS:ComponentData,
  {184d0e74-8b48-426b-8f0c-316543f34466}, ! Handle
  Component Data 1,                       ! Name
  {dbf99383-333c-4b92-95cc-c0860b4c0a65}, ! UUID
  {db4ec158-216a-4935-b1b5-4db1c38b6618}, ! Version UUID
  1366309169,                             ! Creation Timestamp
  1366309169,                             ! Version Timestamp
  {b8a0c48a-022e-4969-aada-20a8c02e9960}; ! Name of Object 1

