
OS:Version,
  {ceb47ad1-4ce4-4cab-94da-0add98c28fde}, ! Handle
  0.9.3;                                  ! Version Identifier

OS:SizingPeriod:DesignDay,
  {525f19e7-22f3-4523-9f27-e1bd5daff9eb}, ! Handle
  Waco Regional Ap Ann Htg Wind 99.6% Condns WS=>MCDB, ! Name
  8.7,                                    ! Maximum Dry-Bulb Temperature {C}
  0,                                      ! Daily Dry-Bulb Temperature Range {deltaC}
  8.7,                                    ! Humidity Indicating Conditions at Maximum Dry-Bulb {BasedOnField A3}
  99512,                                  ! Barometric Pressure {Pa}
  12.5,                                   ! Wind Speed {m/s}
  0,                                      ! Wind Direction {deg}
  0,                                      ! Sky Clearness
  0,                                      ! Rain Indicator
  0,                                      ! Snow Indicator
  21,                                     ! Day of Month
  1,                                      ! Month
  WinterDesignDay,                        ! Day Type
  0,                                      ! Daylight Saving Time Indicator
  Wetbulb,                                ! Humidity Indicating Type
  ,                                       ! Humidity Indicating Day Schedule Name
  DefaultMultipliers,                     ! Dry-Bulb Temperature Range Modifier Type
  ,                                       ! Dry-Bulb Temperature Range Modifier Schedule Name
  ASHRAEClearSky;                         ! Solar Model Indicator

OS:ComponentData,
  {631cc3f9-2041-409a-bea3-78786e330272}, ! Handle
  Component Data 1,                       ! Name
  {c36d7293-e0dc-4fa7-b206-0ece8e2b2059}, ! UUID
  {17b3dd9b-28fe-4e67-882c-ed2b97b2dc9e}, ! Version UUID
  1366310923,                             ! Creation Timestamp
  1366310923,                             ! Version Timestamp
  {525f19e7-22f3-4523-9f27-e1bd5daff9eb}; ! Name of Object 1

