
OS:Version,
  {f067b301-35ff-4feb-b640-2c0c314271ca}, ! Handle
  0.9.3;                                  ! Version Identifier

OS:SizingPeriod:DesignDay,
  {cee2db73-241a-405c-8ee1-d20b307f2208}, ! Handle
  Spokane International Ap  Che Ann Clg 1% Condns DP=>MDB, ! Name
  19.9,                                   ! Maximum Dry-Bulb Temperature {C}
  14.6,                                   ! Daily Dry-Bulb Temperature Range {deltaC}
  13.3,                                   ! Humidity Indicating Conditions at Maximum Dry-Bulb {BasedOnField A3}
  92332,                                  ! Barometric Pressure {Pa}
  4.1,                                    ! Wind Speed {m/s}
  240,                                    ! Wind Direction {deg}
  0,                                      ! Sky Clearness
  0,                                      ! Rain Indicator
  0,                                      ! Snow Indicator
  21,                                     ! Day of Month
  7,                                      ! Month
  SummerDesignDay,                        ! Day Type
  0,                                      ! Daylight Saving Time Indicator
  Dewpoint,                               ! Humidity Indicating Type
  ,                                       ! Humidity Indicating Day Schedule Name
  DefaultMultipliers,                     ! Dry-Bulb Temperature Range Modifier Type
  ,                                       ! Dry-Bulb Temperature Range Modifier Schedule Name
  ASHRAETau,                              ! Solar Model Indicator
  ,                                       ! Beam Solar Day Schedule Name
  ,                                       ! Diffuse Solar Day Schedule Name
  0.354,                                  ! ASHRAE Taub {dimensionless}
  2.385;                                  ! ASHRAE Taud {dimensionless}

OS:ComponentData,
  {6e775c05-b976-44e7-aa70-0ae5a64b6fc0}, ! Handle
  Component Data 1,                       ! Name
  {8e1254f3-93f5-4d32-9373-d62042fa1c03}, ! UUID
  {1ec761ff-ea52-4280-8dfd-17a7fa48a2d6}, ! Version UUID
  1366311396,                             ! Creation Timestamp
  1366311396,                             ! Version Timestamp
  {cee2db73-241a-405c-8ee1-d20b307f2208}; ! Name of Object 1

