
OS:Version,
  {d63c60d3-e5e4-4c12-9b6f-11fd17f6ac4a}, ! Handle
  0.9.3;                                  ! Version Identifier

OS:SizingPeriod:DesignDay,
  {ae9a96f6-a396-47ab-988e-8368ce7adf3e}, ! Handle
  Rockport Aransas Co Ann Clg 1% Condns WB=>MDB, ! Name
  31.1,                                   ! Maximum Dry-Bulb Temperature {C}
  7.1,                                    ! Daily Dry-Bulb Temperature Range {deltaC}
  27.4,                                   ! Humidity Indicating Conditions at Maximum Dry-Bulb {BasedOnField A3}
  101229,                                 ! Barometric Pressure {Pa}
  5.3,                                    ! Wind Speed {m/s}
  130,                                    ! Wind Direction {deg}
  0,                                      ! Sky Clearness
  0,                                      ! Rain Indicator
  0,                                      ! Snow Indicator
  21,                                     ! Day of Month
  8,                                      ! Month
  SummerDesignDay,                        ! Day Type
  0,                                      ! Daylight Saving Time Indicator
  Wetbulb,                                ! Humidity Indicating Type
  ,                                       ! Humidity Indicating Day Schedule Name
  DefaultMultipliers,                     ! Dry-Bulb Temperature Range Modifier Type
  ,                                       ! Dry-Bulb Temperature Range Modifier Schedule Name
  ASHRAETau,                              ! Solar Model Indicator
  ,                                       ! Beam Solar Day Schedule Name
  ,                                       ! Diffuse Solar Day Schedule Name
  0.47,                                   ! ASHRAE Taub {dimensionless}
  2.095;                                  ! ASHRAE Taud {dimensionless}

OS:ComponentData,
  {b3591785-7e15-4f96-bb7a-d63f6a3e1e9f}, ! Handle
  Component Data 1,                       ! Name
  {e980949a-0ca4-44ed-9a0a-4cc496814104}, ! UUID
  {e5a4a6b4-3bc0-4671-bfff-d10443ba0ee8}, ! Version UUID
  1366310864,                             ! Creation Timestamp
  1366310864,                             ! Version Timestamp
  {ae9a96f6-a396-47ab-988e-8368ce7adf3e}; ! Name of Object 1

