
OS:Version,
  {76d00d60-9ccc-4414-945a-86b87eebe82e}, ! Handle
  0.9.3;                                  ! Version Identifier

OS:SizingPeriod:DesignDay,
  {5d31bf12-7ac5-4536-8824-40925abbf8df}, ! Handle
  Oklahoma City Tinker Afb Ann Clg 1% Condns WB=>MDB, ! Name
  32.1,                                   ! Maximum Dry-Bulb Temperature {C}
  11,                                     ! Daily Dry-Bulb Temperature Range {deltaC}
  25.1,                                   ! Humidity Indicating Conditions at Maximum Dry-Bulb {BasedOnField A3}
  96796,                                  ! Barometric Pressure {Pa}
  4.8,                                    ! Wind Speed {m/s}
  180,                                    ! Wind Direction {deg}
  0,                                      ! Sky Clearness
  0,                                      ! Rain Indicator
  0,                                      ! Snow Indicator
  21,                                     ! Day of Month
  7,                                      ! Month
  SummerDesignDay,                        ! Day Type
  0,                                      ! Daylight Saving Time Indicator
  Wetbulb,                                ! Humidity Indicating Type
  ,                                       ! Humidity Indicating Day Schedule Name
  DefaultMultipliers,                     ! Dry-Bulb Temperature Range Modifier Type
  ,                                       ! Dry-Bulb Temperature Range Modifier Schedule Name
  ASHRAETau,                              ! Solar Model Indicator
  ,                                       ! Beam Solar Day Schedule Name
  ,                                       ! Diffuse Solar Day Schedule Name
  0.428,                                  ! ASHRAE Taub {dimensionless}
  2.209;                                  ! ASHRAE Taud {dimensionless}

OS:ComponentData,
  {43dfa4ec-6ff4-4c76-925e-36df27cce9cf}, ! Handle
  Component Data 1,                       ! Name
  {776f0232-90cb-4e34-bd81-8e1d22aac02a}, ! UUID
  {aaacd825-7986-49d6-bbe3-5767fc32eba9}, ! Version UUID
  1366309913,                             ! Creation Timestamp
  1366309913,                             ! Version Timestamp
  {5d31bf12-7ac5-4536-8824-40925abbf8df}; ! Name of Object 1

