
OS:Version,
  {b1a26abf-5726-4f5c-aaf1-9c65936a49aa}, ! Handle
  0.9.3;                                  ! Version Identifier

OS:SizingPeriod:DesignDay,
  {9bc7b0b3-20d5-456d-b44e-e9f8df96fb88}, ! Handle
  Raleigh/Durham Ann Clg 1% Condns WB=>MDB, ! Name
  31,                                     ! Maximum Dry-Bulb Temperature {C}
  10.5,                                   ! Daily Dry-Bulb Temperature Range {deltaC}
  25.2,                                   ! Humidity Indicating Conditions at Maximum Dry-Bulb {BasedOnField A3}
  99726,                                  ! Barometric Pressure {Pa}
  4,                                      ! Wind Speed {m/s}
  240,                                    ! Wind Direction {deg}
  0,                                      ! Sky Clearness
  0,                                      ! Rain Indicator
  0,                                      ! Snow Indicator
  21,                                     ! Day of Month
  7,                                      ! Month
  SummerDesignDay,                        ! Day Type
  0,                                      ! Daylight Saving Time Indicator
  Wetbulb,                                ! Humidity Indicating Type
  ,                                       ! Humidity Indicating Day Schedule Name
  DefaultMultipliers,                     ! Dry-Bulb Temperature Range Modifier Type
  ,                                       ! Dry-Bulb Temperature Range Modifier Schedule Name
  ASHRAETau,                              ! Solar Model Indicator
  ,                                       ! Beam Solar Day Schedule Name
  ,                                       ! Diffuse Solar Day Schedule Name
  0.577,                                  ! ASHRAE Taub {dimensionless}
  1.722;                                  ! ASHRAE Taud {dimensionless}

OS:ComponentData,
  {ce8ac45d-3012-4508-8737-65ef5cc7d3f6}, ! Handle
  Component Data 1,                       ! Name
  {0c07e35c-a09f-470e-a490-faad0bd6e184}, ! UUID
  {e8d2a70d-0bfe-4d13-9632-59ddf13e6d70}, ! Version UUID
  1366308969,                             ! Creation Timestamp
  1366308969,                             ! Version Timestamp
  {9bc7b0b3-20d5-456d-b44e-e9f8df96fb88}; ! Name of Object 1

