
OS:Version,
  {eae73bfb-f278-4f33-8fa3-c2367ced29da}, ! Handle
  0.9.3;                                  ! Version Identifier

OS:SizingPeriod:DesignDay,
  {f8d6b8a1-3105-4efd-9f30-0e545e4779d0}, ! Handle
  Yuma Intl Arpt Ann Clg 2% Condns Enth=>MDB, ! Name
  34.9,                                   ! Maximum Dry-Bulb Temperature {C}
  13.1,                                   ! Daily Dry-Bulb Temperature Range {deltaC}
  77600,                                  ! Humidity Indicating Conditions at Maximum Dry-Bulb {BasedOnField A3}
  100570,                                 ! Barometric Pressure {Pa}
  3.3,                                    ! Wind Speed {m/s}
  270,                                    ! Wind Direction {deg}
  0,                                      ! Sky Clearness
  0,                                      ! Rain Indicator
  0,                                      ! Snow Indicator
  21,                                     ! Day of Month
  7,                                      ! Month
  SummerDesignDay,                        ! Day Type
  0,                                      ! Daylight Saving Time Indicator
  Enthalpy,                               ! Humidity Indicating Type
  ,                                       ! Humidity Indicating Day Schedule Name
  DefaultMultipliers,                     ! Dry-Bulb Temperature Range Modifier Type
  ,                                       ! Dry-Bulb Temperature Range Modifier Schedule Name
  ASHRAETau,                              ! Solar Model Indicator
  ,                                       ! Beam Solar Day Schedule Name
  ,                                       ! Diffuse Solar Day Schedule Name
  0.533,                                  ! ASHRAE Taub {dimensionless}
  1.764;                                  ! ASHRAE Taud {dimensionless}

OS:ComponentData,
  {2fab2cba-2925-457e-9434-01d4ceeb0a94}, ! Handle
  Component Data 1,                       ! Name
  {8c8c7ae0-79cc-4875-8b20-1f78aaf8b865}, ! UUID
  {efe7e7bb-0d51-404d-b401-074fe7af82d9}, ! Version UUID
  1366306339,                             ! Creation Timestamp
  1366306339,                             ! Version Timestamp
  {f8d6b8a1-3105-4efd-9f30-0e545e4779d0}; ! Name of Object 1

