
OS:Version,
  {499b4e91-06d4-4daa-9f9a-34fc9f86d698}, ! Handle
  0.9.3;                                  ! Version Identifier

OS:SizingPeriod:DesignDay,
  {334cdbea-d730-4791-9630-30dc82da9eae}, ! Handle
  MUSKEGON Ann Htg Wind 99.6% Condns WS=>MCDB, ! Name
  -3.9,                                   ! Maximum Dry-Bulb Temperature {C}
  0,                                      ! Daily Dry-Bulb Temperature Range {deltaC}
  -3.9,                                   ! Humidity Indicating Conditions at Maximum Dry-Bulb {BasedOnField A3}
  99051,                                  ! Barometric Pressure {Pa}
  12.9,                                   ! Wind Speed {m/s}
  310,                                    ! Wind Direction {deg}
  0,                                      ! Sky Clearness
  0,                                      ! Rain Indicator
  0,                                      ! Snow Indicator
  21,                                     ! Day of Month
  1,                                      ! Month
  WinterDesignDay,                        ! Day Type
  0,                                      ! Daylight Saving Time Indicator
  Wetbulb,                                ! Humidity Indicating Type
  ,                                       ! Humidity Indicating Day Schedule Name
  DefaultMultipliers,                     ! Dry-Bulb Temperature Range Modifier Type
  ,                                       ! Dry-Bulb Temperature Range Modifier Schedule Name
  ASHRAEClearSky;                         ! Solar Model Indicator

OS:ComponentData,
  {7af7ba40-9c8a-4419-aab2-8a0b2d6d1eb1}, ! Handle
  Component Data 1,                       ! Name
  {80552aad-6913-447f-9dfd-0a184cc9b7d1}, ! UUID
  {b98a111c-3712-43c1-86ab-9c19f373c994}, ! Version UUID
  1366308071,                             ! Creation Timestamp
  1366308071,                             ! Version Timestamp
  {334cdbea-d730-4791-9630-30dc82da9eae}; ! Name of Object 1

