
OS:Version,
  {c595a01b-f619-46df-89ed-384ca8a79cf2}, ! Handle
  0.9.3;                                  ! Version Identifier

OS:SizingPeriod:DesignDay,
  {5247ac24-e5a3-49eb-b2e7-39f04f0ff8e8}, ! Handle
  Yakima Ann Htg Wind 99.6% Condns WS=>MCDB, ! Name
  7.6,                                    ! Maximum Dry-Bulb Temperature {C}
  0,                                      ! Daily Dry-Bulb Temperature Range {deltaC}
  7.6,                                    ! Humidity Indicating Conditions at Maximum Dry-Bulb {BasedOnField A3}
  97481,                                  ! Barometric Pressure {Pa}
  11.5,                                   ! Wind Speed {m/s}
  280,                                    ! Wind Direction {deg}
  0,                                      ! Sky Clearness
  0,                                      ! Rain Indicator
  0,                                      ! Snow Indicator
  21,                                     ! Day of Month
  12,                                     ! Month
  WinterDesignDay,                        ! Day Type
  0,                                      ! Daylight Saving Time Indicator
  Wetbulb,                                ! Humidity Indicating Type
  ,                                       ! Humidity Indicating Day Schedule Name
  DefaultMultipliers,                     ! Dry-Bulb Temperature Range Modifier Type
  ,                                       ! Dry-Bulb Temperature Range Modifier Schedule Name
  ASHRAEClearSky;                         ! Solar Model Indicator

OS:ComponentData,
  {c0820245-cc76-40a9-b134-3790c3d1d142}, ! Handle
  Component Data 1,                       ! Name
  {277a3e82-88cc-41b9-957f-fe25035a4820}, ! UUID
  {d84d2459-e2d8-4f70-90d8-93d0dd540b30}, ! Version UUID
  1366311446,                             ! Creation Timestamp
  1366311446,                             ! Version Timestamp
  {5247ac24-e5a3-49eb-b2e7-39f04f0ff8e8}; ! Name of Object 1

