
OS:Version,
  {c2ce57f1-4e33-4944-a1ef-ae7eb479be05}, ! Handle
  0.9.3;                                  ! Version Identifier

OS:SizingPeriod:DesignDay,
  {9efef4eb-465e-4a1f-9460-a224746f9cef}, ! Handle
  Rhinelander Oneida Ann Hum_n 99.6% Condns DP=>MCDB, ! Name
  -24.2,                                  ! Maximum Dry-Bulb Temperature {C}
  0,                                      ! Daily Dry-Bulb Temperature Range {deltaC}
  -28.9,                                  ! Humidity Indicating Conditions at Maximum Dry-Bulb {BasedOnField A3}
  95381,                                  ! Barometric Pressure {Pa}
  2.6,                                    ! Wind Speed {m/s}
  260,                                    ! Wind Direction {deg}
  0,                                      ! Sky Clearness
  0,                                      ! Rain Indicator
  0,                                      ! Snow Indicator
  21,                                     ! Day of Month
  1,                                      ! Month
  WinterDesignDay,                        ! Day Type
  0,                                      ! Daylight Saving Time Indicator
  Dewpoint,                               ! Humidity Indicating Type
  ,                                       ! Humidity Indicating Day Schedule Name
  DefaultMultipliers,                     ! Dry-Bulb Temperature Range Modifier Type
  ,                                       ! Dry-Bulb Temperature Range Modifier Schedule Name
  ASHRAEClearSky;                         ! Solar Model Indicator

OS:ComponentData,
  {291eaf35-e910-4880-867d-55b78b50fede}, ! Handle
  Component Data 1,                       ! Name
  {899a5a8e-79e4-4a75-9df5-faa180208485}, ! UUID
  {dd7a679c-f04f-4818-b6d6-0c8f7f1a5911}, ! Version UUID
  1366308091,                             ! Creation Timestamp
  1366308091,                             ! Version Timestamp
  {9efef4eb-465e-4a1f-9460-a224746f9cef}; ! Name of Object 1

