
OS:Version,
  {921e308e-bb1a-4bd8-92a1-2797578fb9bb}, ! Handle
  0.9.3;                                  ! Version Identifier

OS:SizingPeriod:DesignDay,
  {db0672ba-a115-4e90-a387-815a920cda2f}, ! Handle
  NASHVILLE Ann Clg 1% Condns DP=>MDB,    ! Name
  27.6,                                   ! Maximum Dry-Bulb Temperature {C}
  10.2,                                   ! Daily Dry-Bulb Temperature Range {deltaC}
  23.4,                                   ! Humidity Indicating Conditions at Maximum Dry-Bulb {BasedOnField A3}
  99181,                                  ! Barometric Pressure {Pa}
  3.5,                                    ! Wind Speed {m/s}
  230,                                    ! Wind Direction {deg}
  0,                                      ! Sky Clearness
  0,                                      ! Rain Indicator
  0,                                      ! Snow Indicator
  21,                                     ! Day of Month
  7,                                      ! Month
  SummerDesignDay,                        ! Day Type
  0,                                      ! Daylight Saving Time Indicator
  Dewpoint,                               ! Humidity Indicating Type
  ,                                       ! Humidity Indicating Day Schedule Name
  DefaultMultipliers,                     ! Dry-Bulb Temperature Range Modifier Type
  ,                                       ! Dry-Bulb Temperature Range Modifier Schedule Name
  ASHRAETau,                              ! Solar Model Indicator
  ,                                       ! Beam Solar Day Schedule Name
  ,                                       ! Diffuse Solar Day Schedule Name
  0.524,                                  ! ASHRAE Taub {dimensionless}
  1.855;                                  ! ASHRAE Taud {dimensionless}

OS:ComponentData,
  {8f0318a0-1120-411b-b7c8-bafdc3655748}, ! Handle
  Component Data 1,                       ! Name
  {05d04c28-3db7-4110-aa94-89204cebc0a1}, ! UUID
  {4c291cb0-005b-48fc-8005-952647b2d7f8}, ! Version UUID
  1366310535,                             ! Creation Timestamp
  1366310535,                             ! Version Timestamp
  {db0672ba-a115-4e90-a387-815a920cda2f}; ! Name of Object 1

