
OS:Version,
  {ce789b4d-ddfd-4493-a38f-b538804d0a5a}, ! Handle
  0.9.3;                                  ! Version Identifier

OS:SizingPeriod:DesignDay,
  {ed06ecea-d51e-4caf-ba1f-b22017cdfc22}, ! Handle
  Raleigh Durham International Ann Clg .4% Condns WB=>MDB, ! Name
  31.8,                                   ! Maximum Dry-Bulb Temperature {C}
  10.5,                                   ! Daily Dry-Bulb Temperature Range {deltaC}
  25.7,                                   ! Humidity Indicating Conditions at Maximum Dry-Bulb {BasedOnField A3}
  99809,                                  ! Barometric Pressure {Pa}
  4,                                      ! Wind Speed {m/s}
  240,                                    ! Wind Direction {deg}
  0,                                      ! Sky Clearness
  0,                                      ! Rain Indicator
  0,                                      ! Snow Indicator
  21,                                     ! Day of Month
  7,                                      ! Month
  SummerDesignDay,                        ! Day Type
  0,                                      ! Daylight Saving Time Indicator
  Wetbulb,                                ! Humidity Indicating Type
  ,                                       ! Humidity Indicating Day Schedule Name
  DefaultMultipliers,                     ! Dry-Bulb Temperature Range Modifier Type
  ,                                       ! Dry-Bulb Temperature Range Modifier Schedule Name
  ASHRAETau,                              ! Solar Model Indicator
  ,                                       ! Beam Solar Day Schedule Name
  ,                                       ! Diffuse Solar Day Schedule Name
  0.577,                                  ! ASHRAE Taub {dimensionless}
  1.722;                                  ! ASHRAE Taud {dimensionless}

OS:ComponentData,
  {241f35e3-c97b-4870-b645-9781ad77fd62}, ! Handle
  Component Data 1,                       ! Name
  {0b3345ba-23d7-46dd-ba52-fabed2d15b32}, ! UUID
  {6c8ae3f8-0a1a-4429-ab4e-245eef6d0275}, ! Version UUID
  1366308974,                             ! Creation Timestamp
  1366308974,                             ! Version Timestamp
  {ed06ecea-d51e-4caf-ba1f-b22017cdfc22}; ! Name of Object 1

