
OS:Version,
  {ceb0a51c-3af9-49c0-ac0d-3e672ab705a9}, ! Handle
  0.9.3;                                  ! Version Identifier

OS:SizingPeriod:DesignDay,
  {23b77b33-9a7a-4b57-a518-8ce0934aab72}, ! Handle
  PIERRE Ann Hum_n 99% Condns DP=>MCDB,   ! Name
  -20.8,                                  ! Maximum Dry-Bulb Temperature {C}
  0,                                      ! Daily Dry-Bulb Temperature Range {deltaC}
  -25.8,                                  ! Humidity Indicating Conditions at Maximum Dry-Bulb {BasedOnField A3}
  95164,                                  ! Barometric Pressure {Pa}
  4.6,                                    ! Wind Speed {m/s}
  310,                                    ! Wind Direction {deg}
  0,                                      ! Sky Clearness
  0,                                      ! Rain Indicator
  0,                                      ! Snow Indicator
  21,                                     ! Day of Month
  1,                                      ! Month
  WinterDesignDay,                        ! Day Type
  0,                                      ! Daylight Saving Time Indicator
  Dewpoint,                               ! Humidity Indicating Type
  ,                                       ! Humidity Indicating Day Schedule Name
  DefaultMultipliers,                     ! Dry-Bulb Temperature Range Modifier Type
  ,                                       ! Dry-Bulb Temperature Range Modifier Schedule Name
  ASHRAEClearSky;                         ! Solar Model Indicator

OS:ComponentData,
  {5b901637-b435-4c98-87f9-b34ded5b98c2}, ! Handle
  Component Data 1,                       ! Name
  {3ee60406-3ea2-48bb-844a-9eabba971300}, ! UUID
  {b124b040-9b98-4dfc-a115-da72b594a34a}, ! Version UUID
  1366310426,                             ! Creation Timestamp
  1366310426,                             ! Version Timestamp
  {23b77b33-9a7a-4b57-a518-8ce0934aab72}; ! Name of Object 1

