
OS:Version,
  {4f3edd04-5721-4458-9cf7-fb30712fb9b7}, ! Handle
  0.9.3;                                  ! Version Identifier

OS:SizingPeriod:DesignDay,
  {8a19028f-4abd-4c87-83f9-bf62fe7f102d}, ! Handle
  Worchester Regional Arpt Ann Clg 2% Condns DB=>MWB, ! Name
  26.9,                                   ! Maximum Dry-Bulb Temperature {C}
  9,                                      ! Daily Dry-Bulb Temperature Range {deltaC}
  20.2,                                   ! Humidity Indicating Conditions at Maximum Dry-Bulb {BasedOnField A3}
  97773,                                  ! Barometric Pressure {Pa}
  4.6,                                    ! Wind Speed {m/s}
  270,                                    ! Wind Direction {deg}
  0,                                      ! Sky Clearness
  0,                                      ! Rain Indicator
  0,                                      ! Snow Indicator
  21,                                     ! Day of Month
  7,                                      ! Month
  SummerDesignDay,                        ! Day Type
  0,                                      ! Daylight Saving Time Indicator
  Wetbulb,                                ! Humidity Indicating Type
  ,                                       ! Humidity Indicating Day Schedule Name
  DefaultMultipliers,                     ! Dry-Bulb Temperature Range Modifier Type
  ,                                       ! Dry-Bulb Temperature Range Modifier Schedule Name
  ASHRAETau,                              ! Solar Model Indicator
  ,                                       ! Beam Solar Day Schedule Name
  ,                                       ! Diffuse Solar Day Schedule Name
  0.454,                                  ! ASHRAE Taub {dimensionless}
  2.026;                                  ! ASHRAE Taud {dimensionless}

OS:ComponentData,
  {215532d4-37f2-44b2-8c6b-99d3c1eafd65}, ! Handle
  Component Data 1,                       ! Name
  {63bbeee6-d2dd-4dc5-8a3b-ce55687d743a}, ! UUID
  {716c3bcf-7598-45a4-a8e5-50912e83eb58}, ! Version UUID
  1366307831,                             ! Creation Timestamp
  1366307831,                             ! Version Timestamp
  {8a19028f-4abd-4c87-83f9-bf62fe7f102d}; ! Name of Object 1

