
OS:Version,
  {ceb8915f-9986-42a3-babb-0fb8b7806a9a}, ! Handle
  0.9.3;                                  ! Version Identifier

OS:SizingPeriod:DesignDay,
  {1d67752c-011f-4394-92b5-68bbd9d82ab2}, ! Handle
  NEW_YORK Ann Htg Wind 99.6% Condns WS=>MCDB, ! Name
  -3.2,                                   ! Maximum Dry-Bulb Temperature {C}
  0,                                      ! Daily Dry-Bulb Temperature Range {deltaC}
  -3.2,                                   ! Humidity Indicating Conditions at Maximum Dry-Bulb {BasedOnField A3}
  100642,                                 ! Barometric Pressure {Pa}
  14.2,                                   ! Wind Speed {m/s}
  320,                                    ! Wind Direction {deg}
  0,                                      ! Sky Clearness
  0,                                      ! Rain Indicator
  0,                                      ! Snow Indicator
  21,                                     ! Day of Month
  1,                                      ! Month
  WinterDesignDay,                        ! Day Type
  0,                                      ! Daylight Saving Time Indicator
  Wetbulb,                                ! Humidity Indicating Type
  ,                                       ! Humidity Indicating Day Schedule Name
  DefaultMultipliers,                     ! Dry-Bulb Temperature Range Modifier Type
  ,                                       ! Dry-Bulb Temperature Range Modifier Schedule Name
  ASHRAEClearSky;                         ! Solar Model Indicator

OS:ComponentData,
  {10b57ebb-df79-40d4-8793-3b7789489f68}, ! Handle
  Component Data 1,                       ! Name
  {c1b60797-ba78-4106-8dc8-135742b9fefa}, ! UUID
  {4ef13ba4-e8d3-405e-b43c-988c69a496ee}, ! Version UUID
  1366309679,                             ! Creation Timestamp
  1366309679,                             ! Version Timestamp
  {1d67752c-011f-4394-92b5-68bbd9d82ab2}; ! Name of Object 1

