
OS:Version,
  {c99b64de-8e4e-48cb-8b72-2a7dea768f0c}, ! Handle
  0.9.3;                                  ! Version Identifier

OS:SizingPeriod:DesignDay,
  {63006b5a-b08c-4681-8a77-832bd7bf8b0a}, ! Handle
  Red Bluff Municipal Arpt Ann Clg .4% Condns DP=>MDB, ! Name
  27.7,                                   ! Maximum Dry-Bulb Temperature {C}
  16.9,                                   ! Daily Dry-Bulb Temperature Range {deltaC}
  18.7,                                   ! Humidity Indicating Conditions at Maximum Dry-Bulb {BasedOnField A3}
  100058,                                 ! Barometric Pressure {Pa}
  3.9,                                    ! Wind Speed {m/s}
  150,                                    ! Wind Direction {deg}
  0,                                      ! Sky Clearness
  0,                                      ! Rain Indicator
  0,                                      ! Snow Indicator
  21,                                     ! Day of Month
  7,                                      ! Month
  SummerDesignDay,                        ! Day Type
  0,                                      ! Daylight Saving Time Indicator
  Dewpoint,                               ! Humidity Indicating Type
  ,                                       ! Humidity Indicating Day Schedule Name
  DefaultMultipliers,                     ! Dry-Bulb Temperature Range Modifier Type
  ,                                       ! Dry-Bulb Temperature Range Modifier Schedule Name
  ASHRAETau,                              ! Solar Model Indicator
  ,                                       ! Beam Solar Day Schedule Name
  ,                                       ! Diffuse Solar Day Schedule Name
  0.364,                                  ! ASHRAE Taub {dimensionless}
  2.504;                                  ! ASHRAE Taud {dimensionless}

OS:ComponentData,
  {6c675a5a-b3a6-4256-82fd-fcdfb18defd5}, ! Handle
  Component Data 1,                       ! Name
  {88678c25-fc6c-47ae-a84c-8913e1194b2d}, ! UUID
  {ea30cc7f-6207-4710-a391-eb8dee764f91}, ! Version UUID
  1366306546,                             ! Creation Timestamp
  1366306546,                             ! Version Timestamp
  {63006b5a-b08c-4681-8a77-832bd7bf8b0a}; ! Name of Object 1

