
OS:Version,
  {24866c87-bd9d-44fc-b0be-8389ba833138}, ! Handle
  0.9.3;                                  ! Version Identifier

OS:SizingPeriod:DesignDay,
  {d5d5ea66-c185-4f26-a9d8-f56ff0f9cfa2}, ! Handle
  South St Paul Muni Ann Htg 99% Condns DB, ! Name
  -20.9,                                  ! Maximum Dry-Bulb Temperature {C}
  0,                                      ! Daily Dry-Bulb Temperature Range {deltaC}
  -20.9,                                  ! Humidity Indicating Conditions at Maximum Dry-Bulb {BasedOnField A3}
  98358,                                  ! Barometric Pressure {Pa}
  1.6,                                    ! Wind Speed {m/s}
  280,                                    ! Wind Direction {deg}
  0,                                      ! Sky Clearness
  0,                                      ! Rain Indicator
  0,                                      ! Snow Indicator
  21,                                     ! Day of Month
  1,                                      ! Month
  WinterDesignDay,                        ! Day Type
  0,                                      ! Daylight Saving Time Indicator
  Wetbulb,                                ! Humidity Indicating Type
  ,                                       ! Humidity Indicating Day Schedule Name
  DefaultMultipliers,                     ! Dry-Bulb Temperature Range Modifier Type
  ,                                       ! Dry-Bulb Temperature Range Modifier Schedule Name
  ASHRAEClearSky;                         ! Solar Model Indicator

OS:ComponentData,
  {b5953416-aa70-457a-8be5-490604065898}, ! Handle
  Component Data 1,                       ! Name
  {c7ff44ef-0ba4-423a-9f12-e08eea356911}, ! UUID
  {c7ffbd39-d772-4ecb-b29d-d80419abf485}, ! Version UUID
  1366308421,                             ! Creation Timestamp
  1366308421,                             ! Version Timestamp
  {d5d5ea66-c185-4f26-a9d8-f56ff0f9cfa2}; ! Name of Object 1

