
OS:Version,
  {a3efe7c3-8431-47db-abf9-6810669fcc91}, ! Handle
  0.9.3;                                  ! Version Identifier

OS:SizingPeriod:DesignDay,
  {1305c274-f3ef-4adf-9967-004e5f996e0f}, ! Handle
  Pullman Moscow Rgnl Ann Hum_n 99.6% Condns DP=>MCDB, ! Name
  -11.2,                                  ! Maximum Dry-Bulb Temperature {C}
  0,                                      ! Daily Dry-Bulb Temperature Range {deltaC}
  -14.7,                                  ! Humidity Indicating Conditions at Maximum Dry-Bulb {BasedOnField A3}
  92321,                                  ! Barometric Pressure {Pa}
  1.9,                                    ! Wind Speed {m/s}
  70,                                     ! Wind Direction {deg}
  0,                                      ! Sky Clearness
  0,                                      ! Rain Indicator
  0,                                      ! Snow Indicator
  21,                                     ! Day of Month
  12,                                     ! Month
  WinterDesignDay,                        ! Day Type
  0,                                      ! Daylight Saving Time Indicator
  Dewpoint,                               ! Humidity Indicating Type
  ,                                       ! Humidity Indicating Day Schedule Name
  DefaultMultipliers,                     ! Dry-Bulb Temperature Range Modifier Type
  ,                                       ! Dry-Bulb Temperature Range Modifier Schedule Name
  ASHRAEClearSky;                         ! Solar Model Indicator

OS:ComponentData,
  {a819c76d-451d-4cda-a121-7a67512f7c46}, ! Handle
  Component Data 1,                       ! Name
  {422b9507-35b9-4329-b533-de0ac1467c16}, ! UUID
  {50638fcc-6456-4b6b-accf-a3b8c1189528}, ! Version UUID
  1366311330,                             ! Creation Timestamp
  1366311330,                             ! Version Timestamp
  {1305c274-f3ef-4adf-9967-004e5f996e0f}; ! Name of Object 1

