
OS:Version,
  {ef73771f-ef95-4b6a-a876-d8809c2436de}, ! Handle
  0.9.3;                                  ! Version Identifier

OS:SizingPeriod:DesignDay,
  {74e2f247-e6a1-4dcf-a851-2e6c74e3d772}, ! Handle
  Roswell Ann Htg 99.6% Condns DB,        ! Name
  -8.7,                                   ! Maximum Dry-Bulb Temperature {C}
  0,                                      ! Daily Dry-Bulb Temperature Range {deltaC}
  -8.7,                                   ! Humidity Indicating Conditions at Maximum Dry-Bulb {BasedOnField A3}
  88660,                                  ! Barometric Pressure {Pa}
  2.8,                                    ! Wind Speed {m/s}
  180,                                    ! Wind Direction {deg}
  0,                                      ! Sky Clearness
  0,                                      ! Rain Indicator
  0,                                      ! Snow Indicator
  21,                                     ! Day of Month
  12,                                     ! Month
  WinterDesignDay,                        ! Day Type
  0,                                      ! Daylight Saving Time Indicator
  Wetbulb,                                ! Humidity Indicating Type
  ,                                       ! Humidity Indicating Day Schedule Name
  DefaultMultipliers,                     ! Dry-Bulb Temperature Range Modifier Type
  ,                                       ! Dry-Bulb Temperature Range Modifier Schedule Name
  ASHRAEClearSky;                         ! Solar Model Indicator

OS:ComponentData,
  {97d76c9d-0d6a-4cda-914d-41588bda61de}, ! Handle
  Component Data 1,                       ! Name
  {fc1623a5-dd80-49cf-9be3-540166c38b99}, ! UUID
  {3734799f-c03e-43b4-980e-adafb8af96c5}, ! Version UUID
  1366309421,                             ! Creation Timestamp
  1366309421,                             ! Version Timestamp
  {74e2f247-e6a1-4dcf-a851-2e6c74e3d772}; ! Name of Object 1

