
OS:Version,
  {dc778099-279c-4d9c-b9cb-2b7ca87ce4cd}, ! Handle
  0.9.3;                                  ! Version Identifier

OS:SizingPeriod:DesignDay,
  {379bf591-50c5-4b47-aeec-13929a75ff89}, ! Handle
  Napa Co  Airport Ann Clg .4% Condns DP=>MDB, ! Name
  24.4,                                   ! Maximum Dry-Bulb Temperature {C}
  13,                                     ! Daily Dry-Bulb Temperature Range {deltaC}
  16.4,                                   ! Humidity Indicating Conditions at Maximum Dry-Bulb {BasedOnField A3}
  101205,                                 ! Barometric Pressure {Pa}
  4.5,                                    ! Wind Speed {m/s}
  210,                                    ! Wind Direction {deg}
  0,                                      ! Sky Clearness
  0,                                      ! Rain Indicator
  0,                                      ! Snow Indicator
  21,                                     ! Day of Month
  7,                                      ! Month
  SummerDesignDay,                        ! Day Type
  0,                                      ! Daylight Saving Time Indicator
  Dewpoint,                               ! Humidity Indicating Type
  ,                                       ! Humidity Indicating Day Schedule Name
  DefaultMultipliers,                     ! Dry-Bulb Temperature Range Modifier Type
  ,                                       ! Dry-Bulb Temperature Range Modifier Schedule Name
  ASHRAETau,                              ! Solar Model Indicator
  ,                                       ! Beam Solar Day Schedule Name
  ,                                       ! Diffuse Solar Day Schedule Name
  0.367,                                  ! ASHRAE Taub {dimensionless}
  2.436;                                  ! ASHRAE Taud {dimensionless}

OS:ComponentData,
  {485adbe6-1990-410a-823e-637f462170bd}, ! Handle
  Component Data 1,                       ! Name
  {827b21af-fef8-4d1a-a8ba-855923a0a9da}, ! UUID
  {d551a14d-8547-4b42-b608-571569b08d46}, ! Version UUID
  1366306517,                             ! Creation Timestamp
  1366306517,                             ! Version Timestamp
  {379bf591-50c5-4b47-aeec-13929a75ff89}; ! Name of Object 1

