
OS:Version,
  {54cd6e0b-0a81-4437-a2e3-9a3ccafc1cbe}, ! Handle
  0.9.3;                                  ! Version Identifier

OS:SizingPeriod:DesignDay,
  {9e753507-732e-4af2-b252-98134ae77281}, ! Handle
  Oklahoma City Tinker Afb Ann Clg .4% Condns DB=>MWB, ! Name
  37.4,                                   ! Maximum Dry-Bulb Temperature {C}
  11,                                     ! Daily Dry-Bulb Temperature Range {deltaC}
  23.1,                                   ! Humidity Indicating Conditions at Maximum Dry-Bulb {BasedOnField A3}
  96796,                                  ! Barometric Pressure {Pa}
  4.8,                                    ! Wind Speed {m/s}
  180,                                    ! Wind Direction {deg}
  0,                                      ! Sky Clearness
  0,                                      ! Rain Indicator
  0,                                      ! Snow Indicator
  21,                                     ! Day of Month
  7,                                      ! Month
  SummerDesignDay,                        ! Day Type
  0,                                      ! Daylight Saving Time Indicator
  Wetbulb,                                ! Humidity Indicating Type
  ,                                       ! Humidity Indicating Day Schedule Name
  DefaultMultipliers,                     ! Dry-Bulb Temperature Range Modifier Type
  ,                                       ! Dry-Bulb Temperature Range Modifier Schedule Name
  ASHRAETau,                              ! Solar Model Indicator
  ,                                       ! Beam Solar Day Schedule Name
  ,                                       ! Diffuse Solar Day Schedule Name
  0.428,                                  ! ASHRAE Taub {dimensionless}
  2.209;                                  ! ASHRAE Taud {dimensionless}

OS:ComponentData,
  {d1db6845-4995-4a53-a475-d1a853a53191}, ! Handle
  Component Data 1,                       ! Name
  {ab07f8a0-18f0-4ab8-99ca-4eaa48fde218}, ! UUID
  {d67bea50-7e17-455c-b0e8-493d7b59f0b1}, ! Version UUID
  1366309912,                             ! Creation Timestamp
  1366309912,                             ! Version Timestamp
  {9e753507-732e-4af2-b252-98134ae77281}; ! Name of Object 1

