
OS:Version,
  {35a48ec9-9801-4fca-b64f-44c081126c8c}, ! Handle
  0.9.3;                                  ! Version Identifier

OS:SizingPeriod:DesignDay,
  {4b5360c1-533c-4066-be66-64fbc1bfd804}, ! Handle
  Vichy Rolla Natl Arpt Ann Clg .4% Condns WB=>MDB, ! Name
  31.7,                                   ! Maximum Dry-Bulb Temperature {C}
  11.1,                                   ! Daily Dry-Bulb Temperature Range {deltaC}
  25.7,                                   ! Humidity Indicating Conditions at Maximum Dry-Bulb {BasedOnField A3}
  97353,                                  ! Barometric Pressure {Pa}
  4.1,                                    ! Wind Speed {m/s}
  230,                                    ! Wind Direction {deg}
  0,                                      ! Sky Clearness
  0,                                      ! Rain Indicator
  0,                                      ! Snow Indicator
  21,                                     ! Day of Month
  7,                                      ! Month
  SummerDesignDay,                        ! Day Type
  0,                                      ! Daylight Saving Time Indicator
  Wetbulb,                                ! Humidity Indicating Type
  ,                                       ! Humidity Indicating Day Schedule Name
  DefaultMultipliers,                     ! Dry-Bulb Temperature Range Modifier Type
  ,                                       ! Dry-Bulb Temperature Range Modifier Schedule Name
  ASHRAETau,                              ! Solar Model Indicator
  ,                                       ! Beam Solar Day Schedule Name
  ,                                       ! Diffuse Solar Day Schedule Name
  0.446,                                  ! ASHRAE Taub {dimensionless}
  2.105;                                  ! ASHRAE Taud {dimensionless}

OS:ComponentData,
  {a133b82d-6d79-4472-bcd5-d056297d2f8e}, ! Handle
  Component Data 1,                       ! Name
  {a0176cb7-0791-444d-bbaa-477f8e755557}, ! UUID
  {2bca2906-8867-4603-84b4-2fa4c3495263}, ! Version UUID
  1366308551,                             ! Creation Timestamp
  1366308551,                             ! Version Timestamp
  {4b5360c1-533c-4066-be66-64fbc1bfd804}; ! Name of Object 1

