
OS:Version,
  {1f3bf138-3d6e-45f6-97ab-9e2a21b2a91a}, ! Handle
  0.9.3;                                  ! Version Identifier

OS:SizingPeriod:DesignDay,
  {8a20beea-02c2-4cd5-ba6b-8b621694fc25}, ! Handle
  TOLEDO Ann Clg 2% Condns Enth=>MDB,     ! Name
  27.9,                                   ! Maximum Dry-Bulb Temperature {C}
  11.5,                                   ! Daily Dry-Bulb Temperature Range {deltaC}
  70000,                                  ! Humidity Indicating Conditions at Maximum Dry-Bulb {BasedOnField A3}
  98816,                                  ! Barometric Pressure {Pa}
  4.8,                                    ! Wind Speed {m/s}
  230,                                    ! Wind Direction {deg}
  0,                                      ! Sky Clearness
  0,                                      ! Rain Indicator
  0,                                      ! Snow Indicator
  21,                                     ! Day of Month
  7,                                      ! Month
  SummerDesignDay,                        ! Day Type
  0,                                      ! Daylight Saving Time Indicator
  Enthalpy,                               ! Humidity Indicating Type
  ,                                       ! Humidity Indicating Day Schedule Name
  DefaultMultipliers,                     ! Dry-Bulb Temperature Range Modifier Type
  ,                                       ! Dry-Bulb Temperature Range Modifier Schedule Name
  ASHRAETau,                              ! Solar Model Indicator
  ,                                       ! Beam Solar Day Schedule Name
  ,                                       ! Diffuse Solar Day Schedule Name
  0.45,                                   ! ASHRAE Taub {dimensionless}
  2.065;                                  ! ASHRAE Taud {dimensionless}

OS:ComponentData,
  {ca9d35bc-a872-41bd-ae17-d48c8eadbf90}, ! Handle
  Component Data 1,                       ! Name
  {484a680c-6789-4338-8a8c-ae4fa34ef293}, ! UUID
  {b15bb489-00b2-4799-b2da-8a336310d39c}, ! Version UUID
  1366309847,                             ! Creation Timestamp
  1366309847,                             ! Version Timestamp
  {8a20beea-02c2-4cd5-ba6b-8b621694fc25}; ! Name of Object 1

