
OS:Version,
  {b2dd7fec-3b05-491e-9f07-ca51113f584b}, ! Handle
  0.9.3;                                  ! Version Identifier

OS:SizingPeriod:DesignDay,
  {860c92c3-c8ab-4c39-a422-4eb3fec5d84e}, ! Handle
  Newark Ann Clg 1% Condns DB=>MWB,       ! Name
  32.8,                                   ! Maximum Dry-Bulb Temperature {C}
  8.9,                                    ! Daily Dry-Bulb Temperature Range {deltaC}
  23,                                     ! Humidity Indicating Conditions at Maximum Dry-Bulb {BasedOnField A3}
  101217,                                 ! Barometric Pressure {Pa}
  5.8,                                    ! Wind Speed {m/s}
  250,                                    ! Wind Direction {deg}
  0,                                      ! Sky Clearness
  0,                                      ! Rain Indicator
  0,                                      ! Snow Indicator
  21,                                     ! Day of Month
  7,                                      ! Month
  SummerDesignDay,                        ! Day Type
  0,                                      ! Daylight Saving Time Indicator
  Wetbulb,                                ! Humidity Indicating Type
  ,                                       ! Humidity Indicating Day Schedule Name
  DefaultMultipliers,                     ! Dry-Bulb Temperature Range Modifier Type
  ,                                       ! Dry-Bulb Temperature Range Modifier Schedule Name
  ASHRAETau,                              ! Solar Model Indicator
  ,                                       ! Beam Solar Day Schedule Name
  ,                                       ! Diffuse Solar Day Schedule Name
  0.528,                                  ! ASHRAE Taub {dimensionless}
  1.831;                                  ! ASHRAE Taud {dimensionless}

OS:ComponentData,
  {b82158fc-891d-4b10-8139-70661ecf32a9}, ! Handle
  Component Data 1,                       ! Name
  {9c357dc3-af84-4207-b5b2-9ab844e98b5e}, ! UUID
  {3caac6ee-024e-4504-ad0f-d80fc969d7d4}, ! Version UUID
  1366309331,                             ! Creation Timestamp
  1366309331,                             ! Version Timestamp
  {860c92c3-c8ab-4c39-a422-4eb3fec5d84e}; ! Name of Object 1

