
OS:Version,
  {a049ac83-96c7-4fcc-b42c-d41760c6daf5}, ! Handle
  0.9.3;                                  ! Version Identifier

OS:SizingPeriod:DesignDay,
  {bf462cac-f75f-4816-8aac-b4fb5eb5f36f}, ! Handle
  Pensacola Regional Ap Ann Hum_n 99% Condns DP=>MCDB, ! Name
  4.4,                                    ! Maximum Dry-Bulb Temperature {C}
  0,                                      ! Daily Dry-Bulb Temperature Range {deltaC}
  -8,                                     ! Humidity Indicating Conditions at Maximum Dry-Bulb {BasedOnField A3}
  100917,                                 ! Barometric Pressure {Pa}
  3.8,                                    ! Wind Speed {m/s}
  0,                                      ! Wind Direction {deg}
  0,                                      ! Sky Clearness
  0,                                      ! Rain Indicator
  0,                                      ! Snow Indicator
  21,                                     ! Day of Month
  1,                                      ! Month
  WinterDesignDay,                        ! Day Type
  0,                                      ! Daylight Saving Time Indicator
  Dewpoint,                               ! Humidity Indicating Type
  ,                                       ! Humidity Indicating Day Schedule Name
  DefaultMultipliers,                     ! Dry-Bulb Temperature Range Modifier Type
  ,                                       ! Dry-Bulb Temperature Range Modifier Schedule Name
  ASHRAEClearSky;                         ! Solar Model Indicator

OS:ComponentData,
  {07704841-52c8-4ca7-9aeb-80460405104c}, ! Handle
  Component Data 1,                       ! Name
  {6e6e1698-35d6-4e15-ae83-ecc479ef242d}, ! UUID
  {05990032-fe8d-42cb-997c-2a1c37149be7}, ! Version UUID
  1366306905,                             ! Creation Timestamp
  1366306905,                             ! Version Timestamp
  {bf462cac-f75f-4816-8aac-b4fb5eb5f36f}; ! Name of Object 1

