
OS:Version,
  {5d28f4ff-dd98-4c5b-83f7-cf813d156ee2}, ! Handle
  0.9.3;                                  ! Version Identifier

OS:SizingPeriod:DesignDay,
  {feaa1363-48d4-4493-bb81-062e8951055c}, ! Handle
  Southern Illinois Ann Clg .4% Condns Enth=>MDB, ! Name
  32,                                     ! Maximum Dry-Bulb Temperature {C}
  10.4,                                   ! Daily Dry-Bulb Temperature Range {deltaC}
  86400,                                  ! Humidity Indicating Conditions at Maximum Dry-Bulb {BasedOnField A3}
  99797,                                  ! Barometric Pressure {Pa}
  3.8,                                    ! Wind Speed {m/s}
  200,                                    ! Wind Direction {deg}
  0,                                      ! Sky Clearness
  0,                                      ! Rain Indicator
  0,                                      ! Snow Indicator
  21,                                     ! Day of Month
  7,                                      ! Month
  SummerDesignDay,                        ! Day Type
  0,                                      ! Daylight Saving Time Indicator
  Enthalpy,                               ! Humidity Indicating Type
  ,                                       ! Humidity Indicating Day Schedule Name
  DefaultMultipliers,                     ! Dry-Bulb Temperature Range Modifier Type
  ,                                       ! Dry-Bulb Temperature Range Modifier Schedule Name
  ASHRAETau,                              ! Solar Model Indicator
  ,                                       ! Beam Solar Day Schedule Name
  ,                                       ! Diffuse Solar Day Schedule Name
  0.488,                                  ! ASHRAE Taub {dimensionless}
  1.955;                                  ! ASHRAE Taud {dimensionless}

OS:ComponentData,
  {0b2b65a3-2f69-4f17-aa6e-be5b596a1304}, ! Handle
  Component Data 1,                       ! Name
  {de47db1d-9c70-4d55-a5b1-99bc775e970d}, ! UUID
  {3fec3565-f5d2-4ef9-ad75-ae257df7ff7b}, ! Version UUID
  1366307336,                             ! Creation Timestamp
  1366307336,                             ! Version Timestamp
  {feaa1363-48d4-4493-bb81-062e8951055c}; ! Name of Object 1

