
OS:Version,
  {5fbe48c9-d7ee-4e61-8a51-a70e924ac386}, ! Handle
  0.9.3;                                  ! Version Identifier

OS:SizingPeriod:DesignDay,
  {8fb9e44e-de45-443e-b409-83b9e273e057}, ! Handle
  Marthas Vineyard Ann Clg 2% Condns Enth=>MDB, ! Name
  24.1,                                   ! Maximum Dry-Bulb Temperature {C}
  9.4,                                    ! Daily Dry-Bulb Temperature Range {deltaC}
  66100,                                  ! Humidity Indicating Conditions at Maximum Dry-Bulb {BasedOnField A3}
  101073,                                 ! Barometric Pressure {Pa}
  4.6,                                    ! Wind Speed {m/s}
  220,                                    ! Wind Direction {deg}
  0,                                      ! Sky Clearness
  0,                                      ! Rain Indicator
  0,                                      ! Snow Indicator
  21,                                     ! Day of Month
  8,                                      ! Month
  SummerDesignDay,                        ! Day Type
  0,                                      ! Daylight Saving Time Indicator
  Enthalpy,                               ! Humidity Indicating Type
  ,                                       ! Humidity Indicating Day Schedule Name
  DefaultMultipliers,                     ! Dry-Bulb Temperature Range Modifier Type
  ,                                       ! Dry-Bulb Temperature Range Modifier Schedule Name
  ASHRAETau,                              ! Solar Model Indicator
  ,                                       ! Beam Solar Day Schedule Name
  ,                                       ! Diffuse Solar Day Schedule Name
  0.469,                                  ! ASHRAE Taub {dimensionless}
  2.004;                                  ! ASHRAE Taud {dimensionless}

