
OS:Version,
  {f0ca5ee4-cb86-40f5-af11-d4662fdc9697}, ! Handle
  0.9.3;                                  ! Version Identifier

OS:SizingPeriod:DesignDay,
  {3adedd17-a48b-4890-8b85-8302e6dbe5f6}, ! Handle
  Marion   Wytheville Ann Clg .4% Condns DP=>MDB, ! Name
  27.7,                                   ! Maximum Dry-Bulb Temperature {C}
  10.8,                                   ! Daily Dry-Bulb Temperature Range {deltaC}
  20.9,                                   ! Humidity Indicating Conditions at Maximum Dry-Bulb {BasedOnField A3}
  92299,                                  ! Barometric Pressure {Pa}
  2.5,                                    ! Wind Speed {m/s}
  290,                                    ! Wind Direction {deg}
  0,                                      ! Sky Clearness
  0,                                      ! Rain Indicator
  0,                                      ! Snow Indicator
  21,                                     ! Day of Month
  7,                                      ! Month
  SummerDesignDay,                        ! Day Type
  0,                                      ! Daylight Saving Time Indicator
  Dewpoint,                               ! Humidity Indicating Type
  ,                                       ! Humidity Indicating Day Schedule Name
  DefaultMultipliers,                     ! Dry-Bulb Temperature Range Modifier Type
  ,                                       ! Dry-Bulb Temperature Range Modifier Schedule Name
  ASHRAETau,                              ! Solar Model Indicator
  ,                                       ! Beam Solar Day Schedule Name
  ,                                       ! Diffuse Solar Day Schedule Name
  0.494,                                  ! ASHRAE Taub {dimensionless}
  1.892;                                  ! ASHRAE Taud {dimensionless}

OS:ComponentData,
  {e02b8e92-a460-484d-9566-78abf3cffeb2}, ! Handle
  Component Data 1,                       ! Name
  {0e8f673b-6b33-461c-a518-20e85afc37ed}, ! UUID
  {2492fb5c-88f1-4a5e-9e99-c2f3542eb290}, ! Version UUID
  1366311101,                             ! Creation Timestamp
  1366311101,                             ! Version Timestamp
  {3adedd17-a48b-4890-8b85-8302e6dbe5f6}; ! Name of Object 1

