
OS:Version,
  {09c27ef6-11af-4822-8eac-7fa59a645b68}, ! Handle
  0.9.3;                                  ! Version Identifier

OS:SizingPeriod:DesignDay,
  {6df51bc8-611a-4bad-8601-9f796200bb93}, ! Handle
  Rapid City Regional Arpt Ann Clg .4% Condns DB=>MWB, ! Name
  36.1,                                   ! Maximum Dry-Bulb Temperature {C}
  14.8,                                   ! Daily Dry-Bulb Temperature Range {deltaC}
  18.8,                                   ! Humidity Indicating Conditions at Maximum Dry-Bulb {BasedOnField A3}
  90279,                                  ! Barometric Pressure {Pa}
  6,                                      ! Wind Speed {m/s}
  180,                                    ! Wind Direction {deg}
  0,                                      ! Sky Clearness
  0,                                      ! Rain Indicator
  0,                                      ! Snow Indicator
  21,                                     ! Day of Month
  7,                                      ! Month
  SummerDesignDay,                        ! Day Type
  0,                                      ! Daylight Saving Time Indicator
  Wetbulb,                                ! Humidity Indicating Type
  ,                                       ! Humidity Indicating Day Schedule Name
  DefaultMultipliers,                     ! Dry-Bulb Temperature Range Modifier Type
  ,                                       ! Dry-Bulb Temperature Range Modifier Schedule Name
  ASHRAETau,                              ! Solar Model Indicator
  ,                                       ! Beam Solar Day Schedule Name
  ,                                       ! Diffuse Solar Day Schedule Name
  0.41,                                   ! ASHRAE Taub {dimensionless}
  2.134;                                  ! ASHRAE Taud {dimensionless}

OS:ComponentData,
  {ca8e8e47-f4fa-4815-85dc-ed4130281f26}, ! Handle
  Component Data 1,                       ! Name
  {3b54882d-312c-4eb3-b41c-fb9348204c63}, ! UUID
  {a7c92b21-54b8-4274-ac6c-88a374436794}, ! Version UUID
  1366310449,                             ! Creation Timestamp
  1366310449,                             ! Version Timestamp
  {6df51bc8-611a-4bad-8601-9f796200bb93}; ! Name of Object 1

