
OS:Version,
  {5e844567-d10d-4a30-b9a7-6579881cf788}, ! Handle
  0.9.3;                                  ! Version Identifier

OS:SizingPeriod:DesignDay,
  {0fcb6797-7e1b-4e8a-9931-58ded6518581}, ! Handle
  Montpelier Ap Ann Clg .4% Condns DB=>MWB, ! Name
  29.5,                                   ! Maximum Dry-Bulb Temperature {C}
  11.3,                                   ! Daily Dry-Bulb Temperature Range {deltaC}
  21,                                     ! Humidity Indicating Conditions at Maximum Dry-Bulb {BasedOnField A3}
  97272,                                  ! Barometric Pressure {Pa}
  3.8,                                    ! Wind Speed {m/s}
  220,                                    ! Wind Direction {deg}
  0,                                      ! Sky Clearness
  0,                                      ! Rain Indicator
  0,                                      ! Snow Indicator
  21,                                     ! Day of Month
  7,                                      ! Month
  SummerDesignDay,                        ! Day Type
  0,                                      ! Daylight Saving Time Indicator
  Wetbulb,                                ! Humidity Indicating Type
  ,                                       ! Humidity Indicating Day Schedule Name
  DefaultMultipliers,                     ! Dry-Bulb Temperature Range Modifier Type
  ,                                       ! Dry-Bulb Temperature Range Modifier Schedule Name
  ASHRAETau,                              ! Solar Model Indicator
  ,                                       ! Beam Solar Day Schedule Name
  ,                                       ! Diffuse Solar Day Schedule Name
  0.435,                                  ! ASHRAE Taub {dimensionless}
  2.069;                                  ! ASHRAE Taud {dimensionless}

OS:ComponentData,
  {f191b182-85f4-490a-9c25-b30039321ceb}, ! Handle
  Component Data 1,                       ! Name
  {56c75ce9-2e77-47c5-8f7f-f999cd57d726}, ! UUID
  {8eefcf8d-6f17-4345-9c36-93d9da08fdb8}, ! Version UUID
  1366311251,                             ! Creation Timestamp
  1366311251,                             ! Version Timestamp
  {0fcb6797-7e1b-4e8a-9931-58ded6518581}; ! Name of Object 1

