
OS:Version,
  {03e3c950-708f-425c-91a2-b674189fedd2}, ! Handle
  0.9.3;                                  ! Version Identifier

OS:SizingPeriod:DesignDay,
  {8ff99ed7-8b97-4080-bd01-60d9dab58ee2}, ! Handle
  Washington  Awos Ann Clg 2% Condns DB=>MWB, ! Name
  28.2,                                   ! Maximum Dry-Bulb Temperature {C}
  11.8,                                   ! Daily Dry-Bulb Temperature Range {deltaC}
  20.4,                                   ! Humidity Indicating Conditions at Maximum Dry-Bulb {BasedOnField A3}
  97063,                                  ! Barometric Pressure {Pa}
  3.2,                                    ! Wind Speed {m/s}
  240,                                    ! Wind Direction {deg}
  0,                                      ! Sky Clearness
  0,                                      ! Rain Indicator
  0,                                      ! Snow Indicator
  21,                                     ! Day of Month
  7,                                      ! Month
  SummerDesignDay,                        ! Day Type
  0,                                      ! Daylight Saving Time Indicator
  Wetbulb,                                ! Humidity Indicating Type
  ,                                       ! Humidity Indicating Day Schedule Name
  DefaultMultipliers,                     ! Dry-Bulb Temperature Range Modifier Type
  ,                                       ! Dry-Bulb Temperature Range Modifier Schedule Name
  ASHRAETau,                              ! Solar Model Indicator
  ,                                       ! Beam Solar Day Schedule Name
  ,                                       ! Diffuse Solar Day Schedule Name
  0.486,                                  ! ASHRAE Taub {dimensionless}
  1.92;                                   ! ASHRAE Taud {dimensionless}

OS:ComponentData,
  {d92af372-c166-4f7b-8dfd-aaeb56616694}, ! Handle
  Component Data 1,                       ! Name
  {74036b35-e48b-419a-89fa-0cd71f26ef56}, ! UUID
  {f1fcec98-ed2a-4c86-9304-c1faf953c099}, ! Version UUID
  1366310257,                             ! Creation Timestamp
  1366310257,                             ! Version Timestamp
  {8ff99ed7-8b97-4080-bd01-60d9dab58ee2}; ! Name of Object 1

