
OS:Version,
  {931ef986-9178-447d-b355-4ff6a81b4836}, ! Handle
  0.9.3;                                  ! Version Identifier

OS:SizingPeriod:DesignDay,
  {b4f9e8b8-9615-4c7d-a9f4-ab44ea06b7ad}, ! Handle
  Washington  Awos Ann Clg .4% Condns DP=>MDB, ! Name
  26.1,                                   ! Maximum Dry-Bulb Temperature {C}
  11.8,                                   ! Daily Dry-Bulb Temperature Range {deltaC}
  21.3,                                   ! Humidity Indicating Conditions at Maximum Dry-Bulb {BasedOnField A3}
  97063,                                  ! Barometric Pressure {Pa}
  3.2,                                    ! Wind Speed {m/s}
  240,                                    ! Wind Direction {deg}
  0,                                      ! Sky Clearness
  0,                                      ! Rain Indicator
  0,                                      ! Snow Indicator
  21,                                     ! Day of Month
  7,                                      ! Month
  SummerDesignDay,                        ! Day Type
  0,                                      ! Daylight Saving Time Indicator
  Dewpoint,                               ! Humidity Indicating Type
  ,                                       ! Humidity Indicating Day Schedule Name
  DefaultMultipliers,                     ! Dry-Bulb Temperature Range Modifier Type
  ,                                       ! Dry-Bulb Temperature Range Modifier Schedule Name
  ASHRAETau,                              ! Solar Model Indicator
  ,                                       ! Beam Solar Day Schedule Name
  ,                                       ! Diffuse Solar Day Schedule Name
  0.486,                                  ! ASHRAE Taub {dimensionless}
  1.92;                                   ! ASHRAE Taud {dimensionless}

