
OS:Version,
  {5b841b03-06cc-4a91-aa63-eca22450948b}, ! Handle
  0.9.3;                                  ! Version Identifier

OS:SizingPeriod:DesignDay,
  {f2e4aab9-481d-4f4a-86da-e120a9a298da}, ! Handle
  Rhinelander Oneida Ann Htg Wind 99.6% Condns WS=>MCDB, ! Name
  -4.1,                                   ! Maximum Dry-Bulb Temperature {C}
  0,                                      ! Daily Dry-Bulb Temperature Range {deltaC}
  -4.1,                                   ! Humidity Indicating Conditions at Maximum Dry-Bulb {BasedOnField A3}
  95381,                                  ! Barometric Pressure {Pa}
  9.1,                                    ! Wind Speed {m/s}
  260,                                    ! Wind Direction {deg}
  0,                                      ! Sky Clearness
  0,                                      ! Rain Indicator
  0,                                      ! Snow Indicator
  21,                                     ! Day of Month
  1,                                      ! Month
  WinterDesignDay,                        ! Day Type
  0,                                      ! Daylight Saving Time Indicator
  Wetbulb,                                ! Humidity Indicating Type
  ,                                       ! Humidity Indicating Day Schedule Name
  DefaultMultipliers,                     ! Dry-Bulb Temperature Range Modifier Type
  ,                                       ! Dry-Bulb Temperature Range Modifier Schedule Name
  ASHRAEClearSky;                         ! Solar Model Indicator

OS:ComponentData,
  {068c117b-9766-4183-9631-f65a6f55e342}, ! Handle
  Component Data 1,                       ! Name
  {3e8982bf-b9d3-41a3-b416-c839f368d738}, ! UUID
  {27e90dfc-a3fe-4a22-82cd-8e0404924e40}, ! Version UUID
  1366308091,                             ! Creation Timestamp
  1366308091,                             ! Version Timestamp
  {f2e4aab9-481d-4f4a-86da-e120a9a298da}; ! Name of Object 1

