
OS:Version,
  {f0bd830a-4299-4682-bd12-3efa9d6290b3}, ! Handle
  0.9.3;                                  ! Version Identifier

OS:SizingPeriod:DesignDay,
  {65be8288-2a8b-4d0c-8c08-fdd72b412901}, ! Handle
  Nenana Municipal Ap Ann Htg Wind 99.6% Condns WS=>MCDB, ! Name
  -16.6,                                  ! Maximum Dry-Bulb Temperature {C}
  0,                                      ! Daily Dry-Bulb Temperature Range {deltaC}
  -16.6,                                  ! Humidity Indicating Conditions at Maximum Dry-Bulb {BasedOnField A3}
  100022,                                 ! Barometric Pressure {Pa}
  10.9,                                   ! Wind Speed {m/s}
  250,                                    ! Wind Direction {deg}
  0,                                      ! Sky Clearness
  0,                                      ! Rain Indicator
  0,                                      ! Snow Indicator
  21,                                     ! Day of Month
  1,                                      ! Month
  WinterDesignDay,                        ! Day Type
  0,                                      ! Daylight Saving Time Indicator
  Wetbulb,                                ! Humidity Indicating Type
  ,                                       ! Humidity Indicating Day Schedule Name
  DefaultMultipliers,                     ! Dry-Bulb Temperature Range Modifier Type
  ,                                       ! Dry-Bulb Temperature Range Modifier Schedule Name
  ASHRAEClearSky;                         ! Solar Model Indicator

OS:ComponentData,
  {0ba7cb77-603f-4a57-8947-7095c3579a00}, ! Handle
  Component Data 1,                       ! Name
  {f01c65d9-8734-472f-b773-5ed916f16ccc}, ! UUID
  {97458445-1328-4d45-81fb-8de13bc70700}, ! Version UUID
  1366305440,                             ! Creation Timestamp
  1366305440,                             ! Version Timestamp
  {65be8288-2a8b-4d0c-8c08-fdd72b412901}; ! Name of Object 1

