
OS:Version,
  {ef83ff97-ba0c-43af-a364-ce342150dab5}, ! Handle
  0.9.3;                                  ! Version Identifier

OS:SizingPeriod:DesignDay,
  {a44b1299-66cc-4af4-8c09-a091517e8ed6}, ! Handle
  RALEIGH Ann Clg .4% Condns DB=>MWB,     ! Name
  34.5,                                   ! Maximum Dry-Bulb Temperature {C}
  10.5,                                   ! Daily Dry-Bulb Temperature Range {deltaC}
  24.4,                                   ! Humidity Indicating Conditions at Maximum Dry-Bulb {BasedOnField A3}
  99726,                                  ! Barometric Pressure {Pa}
  4,                                      ! Wind Speed {m/s}
  240,                                    ! Wind Direction {deg}
  0,                                      ! Sky Clearness
  0,                                      ! Rain Indicator
  0,                                      ! Snow Indicator
  21,                                     ! Day of Month
  7,                                      ! Month
  SummerDesignDay,                        ! Day Type
  0,                                      ! Daylight Saving Time Indicator
  Wetbulb,                                ! Humidity Indicating Type
  ,                                       ! Humidity Indicating Day Schedule Name
  DefaultMultipliers,                     ! Dry-Bulb Temperature Range Modifier Type
  ,                                       ! Dry-Bulb Temperature Range Modifier Schedule Name
  ASHRAETau,                              ! Solar Model Indicator
  ,                                       ! Beam Solar Day Schedule Name
  ,                                       ! Diffuse Solar Day Schedule Name
  0.577,                                  ! ASHRAE Taub {dimensionless}
  1.722;                                  ! ASHRAE Taud {dimensionless}

OS:ComponentData,
  {dc484fb2-0a50-496a-b420-b363c5ba6433}, ! Handle
  Component Data 1,                       ! Name
  {64ec3af9-8a3c-401c-b55f-7a3c476b03de}, ! UUID
  {dacc8811-5361-49a3-ae08-f0404ca8e4e1}, ! Version UUID
  1366308965,                             ! Creation Timestamp
  1366308965,                             ! Version Timestamp
  {a44b1299-66cc-4af4-8c09-a091517e8ed6}; ! Name of Object 1

