
OS:Version,
  {533a083a-a1e3-4f11-a747-205a4ef704d9}, ! Handle
  0.9.3;                                  ! Version Identifier

OS:SizingPeriod:DesignDay,
  {e31eef92-7e2d-4df0-8a0b-38f0807af1f7}, ! Handle
  Omaha Eppley Airfield Ann Hum_n 99.6% Condns DP=>MCDB, ! Name
  -20.6,                                  ! Maximum Dry-Bulb Temperature {C}
  0,                                      ! Daily Dry-Bulb Temperature Range {deltaC}
  -25.4,                                  ! Humidity Indicating Conditions at Maximum Dry-Bulb {BasedOnField A3}
  97784,                                  ! Barometric Pressure {Pa}
  4.5,                                    ! Wind Speed {m/s}
  340,                                    ! Wind Direction {deg}
  0,                                      ! Sky Clearness
  0,                                      ! Rain Indicator
  0,                                      ! Snow Indicator
  21,                                     ! Day of Month
  1,                                      ! Month
  WinterDesignDay,                        ! Day Type
  0,                                      ! Daylight Saving Time Indicator
  Dewpoint,                               ! Humidity Indicating Type
  ,                                       ! Humidity Indicating Day Schedule Name
  DefaultMultipliers,                     ! Dry-Bulb Temperature Range Modifier Type
  ,                                       ! Dry-Bulb Temperature Range Modifier Schedule Name
  ASHRAEClearSky;                         ! Solar Model Indicator

OS:ComponentData,
  {4c951358-a687-4dc4-91e2-d96fa76a0c49}, ! Handle
  Component Data 1,                       ! Name
  {9c7848c8-ac3e-45af-84b1-f87cce5f7425}, ! UUID
  {e216383c-9d51-442f-ace3-9925f5759a25}, ! Version UUID
  1366309173,                             ! Creation Timestamp
  1366309173,                             ! Version Timestamp
  {e31eef92-7e2d-4df0-8a0b-38f0807af1f7}; ! Name of Object 1

