
OS:Version,
  {c99682f4-55e6-4272-a2dd-589a942045c9}, ! Handle
  0.9.3;                                  ! Version Identifier

OS:SizingPeriod:DesignDay,
  {50d5a237-2945-4076-b1cb-78d6c333585d}, ! Handle
  MERIDIAN Ann Clg 2% Condns Enth=>MDB,   ! Name
  31.1,                                   ! Maximum Dry-Bulb Temperature {C}
  11.4,                                   ! Daily Dry-Bulb Temperature Range {deltaC}
  78200,                                  ! Humidity Indicating Conditions at Maximum Dry-Bulb {BasedOnField A3}
  100201,                                 ! Barometric Pressure {Pa}
  3.2,                                    ! Wind Speed {m/s}
  0,                                      ! Wind Direction {deg}
  0,                                      ! Sky Clearness
  0,                                      ! Rain Indicator
  0,                                      ! Snow Indicator
  21,                                     ! Day of Month
  7,                                      ! Month
  SummerDesignDay,                        ! Day Type
  0,                                      ! Daylight Saving Time Indicator
  Enthalpy,                               ! Humidity Indicating Type
  ,                                       ! Humidity Indicating Day Schedule Name
  DefaultMultipliers,                     ! Dry-Bulb Temperature Range Modifier Type
  ,                                       ! Dry-Bulb Temperature Range Modifier Schedule Name
  ASHRAETau,                              ! Solar Model Indicator
  ,                                       ! Beam Solar Day Schedule Name
  ,                                       ! Diffuse Solar Day Schedule Name
  0.552,                                  ! ASHRAE Taub {dimensionless}
  1.818;                                  ! ASHRAE Taud {dimensionless}

OS:ComponentData,
  {451fc96e-4ee8-4b07-a677-e8912bbb0807}, ! Handle
  Component Data 1,                       ! Name
  {c8b9b50a-7c79-4ab9-9e5c-954997d36909}, ! UUID
  {21fee08a-3e91-4674-a3fd-23566a49f9d5}, ! Version UUID
  1366308675,                             ! Creation Timestamp
  1366308675,                             ! Version Timestamp
  {50d5a237-2945-4076-b1cb-78d6c333585d}; ! Name of Object 1

