
OS:Version,
  {32e7aefa-f179-4b38-a45f-d1fc95481f15}, ! Handle
  0.9.3;                                  ! Version Identifier

OS:SizingPeriod:DesignDay,
  {5aacd877-ab29-4e4e-b00f-6e1e7d87f9ba}, ! Handle
  Phoenix Sky Harbor Intl Ap Ann Clg 1% Condns DB=>MWB, ! Name
  42.3,                                   ! Maximum Dry-Bulb Temperature {C}
  12,                                     ! Daily Dry-Bulb Temperature Range {deltaC}
  21,                                     ! Humidity Indicating Conditions at Maximum Dry-Bulb {BasedOnField A3}
  97342,                                  ! Barometric Pressure {Pa}
  4.1,                                    ! Wind Speed {m/s}
  260,                                    ! Wind Direction {deg}
  0,                                      ! Sky Clearness
  0,                                      ! Rain Indicator
  0,                                      ! Snow Indicator
  21,                                     ! Day of Month
  7,                                      ! Month
  SummerDesignDay,                        ! Day Type
  0,                                      ! Daylight Saving Time Indicator
  Wetbulb,                                ! Humidity Indicating Type
  ,                                       ! Humidity Indicating Day Schedule Name
  DefaultMultipliers,                     ! Dry-Bulb Temperature Range Modifier Type
  ,                                       ! Dry-Bulb Temperature Range Modifier Schedule Name
  ASHRAETau,                              ! Solar Model Indicator
  ,                                       ! Beam Solar Day Schedule Name
  ,                                       ! Diffuse Solar Day Schedule Name
  0.588,                                  ! ASHRAE Taub {dimensionless}
  1.653;                                  ! ASHRAE Taud {dimensionless}

OS:ComponentData,
  {5b8f036e-ef51-4fa2-96ed-0b6f1427b4ba}, ! Handle
  Component Data 1,                       ! Name
  {4522b4d2-244d-4136-88c5-f4903cb3d525}, ! UUID
  {3d19d2c6-0a2c-4662-8c17-9eeef8da0bb6}, ! Version UUID
  1366306294,                             ! Creation Timestamp
  1366306294,                             ! Version Timestamp
  {5aacd877-ab29-4e4e-b00f-6e1e7d87f9ba}; ! Name of Object 1

