
OS:Version,
  {e50045b2-b67f-4835-b41c-60c79f817173}, ! Handle
  0.9.3;                                  ! Version Identifier

OS:SizingPeriod:DesignDay,
  {cc910632-61f0-40db-9556-e081a5a4b6c2}, ! Handle
  NORFOLK Ann Htg Wind 99.6% Condns WS=>MCDB, ! Name
  6.1,                                    ! Maximum Dry-Bulb Temperature {C}
  0,                                      ! Daily Dry-Bulb Temperature Range {deltaC}
  6.1,                                    ! Humidity Indicating Conditions at Maximum Dry-Bulb {BasedOnField A3}
  101217,                                 ! Barometric Pressure {Pa}
  12.6,                                   ! Wind Speed {m/s}
  0,                                      ! Wind Direction {deg}
  0,                                      ! Sky Clearness
  0,                                      ! Rain Indicator
  0,                                      ! Snow Indicator
  21,                                     ! Day of Month
  1,                                      ! Month
  WinterDesignDay,                        ! Day Type
  0,                                      ! Daylight Saving Time Indicator
  Wetbulb,                                ! Humidity Indicating Type
  ,                                       ! Humidity Indicating Day Schedule Name
  DefaultMultipliers,                     ! Dry-Bulb Temperature Range Modifier Type
  ,                                       ! Dry-Bulb Temperature Range Modifier Schedule Name
  ASHRAEClearSky;                         ! Solar Model Indicator

OS:ComponentData,
  {7693eb21-e3f5-41d4-b7c3-599ad1264d6e}, ! Handle
  Component Data 1,                       ! Name
  {51c3d0b1-5882-4687-a642-07719bc10c25}, ! UUID
  {506e1894-929d-4b48-b7cd-e418d11eecac}, ! Version UUID
  1366311122,                             ! Creation Timestamp
  1366311122,                             ! Version Timestamp
  {cc910632-61f0-40db-9556-e081a5a4b6c2}; ! Name of Object 1

