
OS:Version,
  {1c410976-389f-4f1e-9ed0-e06cf837a7ac}, ! Handle
  0.9.3;                                  ! Version Identifier

OS:SizingPeriod:DesignDay,
  {95d72b68-268a-49a8-9d86-25aae64549d2}, ! Handle
  Oxnard/Point Mugu NF Ann Clg .4% Condns DB=>MWB, ! Name
  27.8,                                   ! Maximum Dry-Bulb Temperature {C}
  7.8,                                    ! Daily Dry-Bulb Temperature Range {deltaC}
  16.6,                                   ! Humidity Indicating Conditions at Maximum Dry-Bulb {BasedOnField A3}
  101289,                                 ! Barometric Pressure {Pa}
  5.2,                                    ! Wind Speed {m/s}
  50,                                     ! Wind Direction {deg}
  0,                                      ! Sky Clearness
  0,                                      ! Rain Indicator
  0,                                      ! Snow Indicator
  21,                                     ! Day of Month
  8,                                      ! Month
  SummerDesignDay,                        ! Day Type
  0,                                      ! Daylight Saving Time Indicator
  Wetbulb,                                ! Humidity Indicating Type
  ,                                       ! Humidity Indicating Day Schedule Name
  DefaultMultipliers,                     ! Dry-Bulb Temperature Range Modifier Type
  ,                                       ! Dry-Bulb Temperature Range Modifier Schedule Name
  ASHRAETau,                              ! Solar Model Indicator
  ,                                       ! Beam Solar Day Schedule Name
  ,                                       ! Diffuse Solar Day Schedule Name
  0.425,                                  ! ASHRAE Taub {dimensionless}
  2.2;                                    ! ASHRAE Taud {dimensionless}

OS:ComponentData,
  {be9d1c81-03c7-4413-bdb4-199e25922ce7}, ! Handle
  Component Data 1,                       ! Name
  {45a83c8a-f52e-4ecb-999b-30c5b81ecfa1}, ! UUID
  {e669a9d2-92d4-4af1-bbe1-9c2d01080ab3}, ! Version UUID
  1366306536,                             ! Creation Timestamp
  1366306536,                             ! Version Timestamp
  {95d72b68-268a-49a8-9d86-25aae64549d2}; ! Name of Object 1

