
OS:Version,
  {7b7695b9-5fe3-4ebb-b456-af164db10337}, ! Handle
  0.9.3;                                  ! Version Identifier

OS:SizingPeriod:DesignDay,
  {8967bbfb-62ec-450a-9492-8ef809c34c6e}, ! Handle
  Memphis International Ap Ann Htg Wind 99.6% Condns WS=>MCDB, ! Name
  4.4,                                    ! Maximum Dry-Bulb Temperature {C}
  0,                                      ! Daily Dry-Bulb Temperature Range {deltaC}
  4.4,                                    ! Humidity Indicating Conditions at Maximum Dry-Bulb {BasedOnField A3}
  100356,                                 ! Barometric Pressure {Pa}
  10.9,                                   ! Wind Speed {m/s}
  0,                                      ! Wind Direction {deg}
  0,                                      ! Sky Clearness
  0,                                      ! Rain Indicator
  0,                                      ! Snow Indicator
  21,                                     ! Day of Month
  1,                                      ! Month
  WinterDesignDay,                        ! Day Type
  0,                                      ! Daylight Saving Time Indicator
  Wetbulb,                                ! Humidity Indicating Type
  ,                                       ! Humidity Indicating Day Schedule Name
  DefaultMultipliers,                     ! Dry-Bulb Temperature Range Modifier Type
  ,                                       ! Dry-Bulb Temperature Range Modifier Schedule Name
  ASHRAEClearSky;                         ! Solar Model Indicator

OS:ComponentData,
  {33720f28-da1a-4c5c-8ccb-63727dfb7b23}, ! Handle
  Component Data 1,                       ! Name
  {5f61a55c-5f97-4f28-b7cd-7065fcdfb42f}, ! UUID
  {2e1bd297-208b-4f5f-b088-6209fa853443}, ! Version UUID
  1366310528,                             ! Creation Timestamp
  1366310528,                             ! Version Timestamp
  {8967bbfb-62ec-450a-9492-8ef809c34c6e}; ! Name of Object 1

