
OS:Version,
  {70c12468-79cd-4e43-a6a8-b6b2964453d3}, ! Handle
  0.9.3;                                  ! Version Identifier

OS:SizingPeriod:DesignDay,
  {f73affca-a5d8-42b4-a6f2-30ba4c4fc6b5}, ! Handle
  Pittsburgh Allegheny Co Ap Ann Clg .4% Condns DB=>MWB, ! Name
  32.2,                                   ! Maximum Dry-Bulb Temperature {C}
  9.9,                                    ! Daily Dry-Bulb Temperature Range {deltaC}
  22.5,                                   ! Humidity Indicating Conditions at Maximum Dry-Bulb {BasedOnField A3}
  96842,                                  ! Barometric Pressure {Pa}
  4.4,                                    ! Wind Speed {m/s}
  240,                                    ! Wind Direction {deg}
  0,                                      ! Sky Clearness
  0,                                      ! Rain Indicator
  0,                                      ! Snow Indicator
  21,                                     ! Day of Month
  7,                                      ! Month
  SummerDesignDay,                        ! Day Type
  0,                                      ! Daylight Saving Time Indicator
  Wetbulb,                                ! Humidity Indicating Type
  ,                                       ! Humidity Indicating Day Schedule Name
  DefaultMultipliers,                     ! Dry-Bulb Temperature Range Modifier Type
  ,                                       ! Dry-Bulb Temperature Range Modifier Schedule Name
  ASHRAETau,                              ! Solar Model Indicator
  ,                                       ! Beam Solar Day Schedule Name
  ,                                       ! Diffuse Solar Day Schedule Name
  0.484,                                  ! ASHRAE Taub {dimensionless}
  1.916;                                  ! ASHRAE Taud {dimensionless}

OS:ComponentData,
  {d26df977-b91a-4c79-a380-a7270a286a67}, ! Handle
  Component Data 1,                       ! Name
  {9914dd0c-83a6-4f0f-841d-fdf6a828086f}, ! UUID
  {468bd66b-35b8-48fb-9f1c-b83ba150782e}, ! Version UUID
  1366310227,                             ! Creation Timestamp
  1366310227,                             ! Version Timestamp
  {f73affca-a5d8-42b4-a6f2-30ba4c4fc6b5}; ! Name of Object 1

