
OS:Version,
  {8cf5c7aa-7169-41d5-8183-5998266d7ae0}, ! Handle
  0.9.3;                                  ! Version Identifier

OS:SizingPeriod:DesignDay,
  {9c89812a-1fd0-48f8-b98e-1f46116e97f0}, ! Handle
  Valparaiso Elgin Afb Ann Clg .4% Condns DB=>MWB, ! Name
  33.7,                                   ! Maximum Dry-Bulb Temperature {C}
  8,                                      ! Daily Dry-Bulb Temperature Range {deltaC}
  24.9,                                   ! Humidity Indicating Conditions at Maximum Dry-Bulb {BasedOnField A3}
  101085,                                 ! Barometric Pressure {Pa}
  4.1,                                    ! Wind Speed {m/s}
  210,                                    ! Wind Direction {deg}
  0,                                      ! Sky Clearness
  0,                                      ! Rain Indicator
  0,                                      ! Snow Indicator
  21,                                     ! Day of Month
  7,                                      ! Month
  SummerDesignDay,                        ! Day Type
  0,                                      ! Daylight Saving Time Indicator
  Wetbulb,                                ! Humidity Indicating Type
  ,                                       ! Humidity Indicating Day Schedule Name
  DefaultMultipliers,                     ! Dry-Bulb Temperature Range Modifier Type
  ,                                       ! Dry-Bulb Temperature Range Modifier Schedule Name
  ASHRAETau,                              ! Solar Model Indicator
  ,                                       ! Beam Solar Day Schedule Name
  ,                                       ! Diffuse Solar Day Schedule Name
  0.527,                                  ! ASHRAE Taub {dimensionless}
  1.901;                                  ! ASHRAE Taud {dimensionless}

OS:ComponentData,
  {c665d204-9884-4f2b-9b18-3802e693968e}, ! Handle
  Component Data 1,                       ! Name
  {9a65e792-6e94-4f35-9661-f0d1f933975f}, ! UUID
  {068c57d8-e167-4800-ae1d-53c80be57c0b}, ! Version UUID
  1366306942,                             ! Creation Timestamp
  1366306942,                             ! Version Timestamp
  {9c89812a-1fd0-48f8-b98e-1f46116e97f0}; ! Name of Object 1

