
OS:Version,
  {53fb7cf3-269e-4e86-a84b-8a44383ace46}, ! Handle
  0.9.3;                                  ! Version Identifier

OS:SizingPeriod:DesignDay,
  {3804f872-7c84-445b-80c1-d3f4e0698b1d}, ! Handle
  Rockford Greater Rockford Ap Ann Clg 1% Condns DP=>MDB, ! Name
  27.8,                                   ! Maximum Dry-Bulb Temperature {C}
  11,                                     ! Daily Dry-Bulb Temperature Range {deltaC}
  23.1,                                   ! Humidity Indicating Conditions at Maximum Dry-Bulb {BasedOnField A3}
  98675,                                  ! Barometric Pressure {Pa}
  5.3,                                    ! Wind Speed {m/s}
  210,                                    ! Wind Direction {deg}
  0,                                      ! Sky Clearness
  0,                                      ! Rain Indicator
  0,                                      ! Snow Indicator
  21,                                     ! Day of Month
  7,                                      ! Month
  SummerDesignDay,                        ! Day Type
  0,                                      ! Daylight Saving Time Indicator
  Dewpoint,                               ! Humidity Indicating Type
  ,                                       ! Humidity Indicating Day Schedule Name
  DefaultMultipliers,                     ! Dry-Bulb Temperature Range Modifier Type
  ,                                       ! Dry-Bulb Temperature Range Modifier Schedule Name
  ASHRAETau,                              ! Solar Model Indicator
  ,                                       ! Beam Solar Day Schedule Name
  ,                                       ! Diffuse Solar Day Schedule Name
  0.445,                                  ! ASHRAE Taub {dimensionless}
  2.082;                                  ! ASHRAE Taud {dimensionless}

OS:ComponentData,
  {5b6b0c35-343e-4f2e-9e75-6e8732b6beac}, ! Handle
  Component Data 1,                       ! Name
  {ea27bcdd-b55a-47ac-9540-6973f345db83}, ! UUID
  {25b753b8-5e9f-46fe-981a-5cf35f082088}, ! Version UUID
  1366307393,                             ! Creation Timestamp
  1366307393,                             ! Version Timestamp
  {3804f872-7c84-445b-80c1-d3f4e0698b1d}; ! Name of Object 1

