
OS:Version,
  {73271b64-1b88-4995-8b9e-c61c8a5213b0}, ! Handle
  0.9.3;                                  ! Version Identifier

OS:SizingPeriod:DesignDay,
  {964f00b3-6412-4f4a-8165-9e3d5a29a0af}, ! Handle
  WICHITA_FALLS Ann Clg .4% Condns WB=>MDB, ! Name
  33.3,                                   ! Maximum Dry-Bulb Temperature {C}
  13,                                     ! Daily Dry-Bulb Temperature Range {deltaC}
  25.4,                                   ! Humidity Indicating Conditions at Maximum Dry-Bulb {BasedOnField A3}
  97609,                                  ! Barometric Pressure {Pa}
  5.5,                                    ! Wind Speed {m/s}
  180,                                    ! Wind Direction {deg}
  0,                                      ! Sky Clearness
  0,                                      ! Rain Indicator
  0,                                      ! Snow Indicator
  21,                                     ! Day of Month
  7,                                      ! Month
  SummerDesignDay,                        ! Day Type
  0,                                      ! Daylight Saving Time Indicator
  Wetbulb,                                ! Humidity Indicating Type
  ,                                       ! Humidity Indicating Day Schedule Name
  DefaultMultipliers,                     ! Dry-Bulb Temperature Range Modifier Type
  ,                                       ! Dry-Bulb Temperature Range Modifier Schedule Name
  ASHRAETau,                              ! Solar Model Indicator
  ,                                       ! Beam Solar Day Schedule Name
  ,                                       ! Diffuse Solar Day Schedule Name
  0.44,                                   ! ASHRAE Taub {dimensionless}
  2.15;                                   ! ASHRAE Taud {dimensionless}

OS:ComponentData,
  {c5c80048-2144-4888-a86a-c1de64d41596}, ! Handle
  Component Data 1,                       ! Name
  {b044c64e-0b86-4217-9ade-7335946a8b0f}, ! UUID
  {66c017b4-edc6-40cb-9c91-51d815f35c95}, ! Version UUID
  1366310928,                             ! Creation Timestamp
  1366310928,                             ! Version Timestamp
  {964f00b3-6412-4f4a-8165-9e3d5a29a0af}; ! Name of Object 1

