
OS:Version,
  {8319cb76-460f-4441-a259-75b1899e86ce}, ! Handle
  0.9.3;                                  ! Version Identifier

OS:SizingPeriod:DesignDay,
  {3388a209-36b4-412d-9f82-033f09bd742c}, ! Handle
  Yuma Ann Htg 99% Condns DB,             ! Name
  7.1,                                    ! Maximum Dry-Bulb Temperature {C}
  0,                                      ! Daily Dry-Bulb Temperature Range {deltaC}
  7.1,                                    ! Humidity Indicating Conditions at Maximum Dry-Bulb {BasedOnField A3}
  100582,                                 ! Barometric Pressure {Pa}
  2,                                      ! Wind Speed {m/s}
  30,                                     ! Wind Direction {deg}
  0,                                      ! Sky Clearness
  0,                                      ! Rain Indicator
  0,                                      ! Snow Indicator
  21,                                     ! Day of Month
  12,                                     ! Month
  WinterDesignDay,                        ! Day Type
  0,                                      ! Daylight Saving Time Indicator
  Wetbulb,                                ! Humidity Indicating Type
  ,                                       ! Humidity Indicating Day Schedule Name
  DefaultMultipliers,                     ! Dry-Bulb Temperature Range Modifier Type
  ,                                       ! Dry-Bulb Temperature Range Modifier Schedule Name
  ASHRAEClearSky;                         ! Solar Model Indicator

OS:ComponentData,
  {f555aecd-c330-4f02-a374-bcc0dac34497}, ! Handle
  Component Data 1,                       ! Name
  {dee5daf6-38aa-4f37-943e-8c3a463b5b43}, ! UUID
  {99740202-ff27-46fa-88b1-40dbb4f69151}, ! Version UUID
  1366306333,                             ! Creation Timestamp
  1366306333,                             ! Version Timestamp
  {3388a209-36b4-412d-9f82-033f09bd742c}; ! Name of Object 1

