
OS:Version,
  {668673c1-c664-42d7-bef7-7f4f9b9a38ba}, ! Handle
  0.9.3;                                  ! Version Identifier

OS:SizingPeriod:DesignDay,
  {bcf6145c-3a71-4776-9c46-a84b06f608bf}, ! Handle
  Naples Municipal Ann Htg Wind 99.6% Condns WS=>MCDB, ! Name
  21.9,                                   ! Maximum Dry-Bulb Temperature {C}
  0,                                      ! Daily Dry-Bulb Temperature Range {deltaC}
  21.9,                                   ! Humidity Indicating Conditions at Maximum Dry-Bulb {BasedOnField A3}
  101289,                                 ! Barometric Pressure {Pa}
  9.4,                                    ! Wind Speed {m/s}
  30,                                     ! Wind Direction {deg}
  0,                                      ! Sky Clearness
  0,                                      ! Rain Indicator
  0,                                      ! Snow Indicator
  21,                                     ! Day of Month
  1,                                      ! Month
  WinterDesignDay,                        ! Day Type
  0,                                      ! Daylight Saving Time Indicator
  Wetbulb,                                ! Humidity Indicating Type
  ,                                       ! Humidity Indicating Day Schedule Name
  DefaultMultipliers,                     ! Dry-Bulb Temperature Range Modifier Type
  ,                                       ! Dry-Bulb Temperature Range Modifier Schedule Name
  ASHRAEClearSky;                         ! Solar Model Indicator

OS:ComponentData,
  {6d466111-a9ff-4cb3-8f47-f0c930464406}, ! Handle
  Component Data 1,                       ! Name
  {db861c84-12ed-4213-a4c6-ec8b763fa33e}, ! UUID
  {ce98766d-f8f0-4ea7-80a0-e2d703bf98e9}, ! Version UUID
  1366306869,                             ! Creation Timestamp
  1366306869,                             ! Version Timestamp
  {bcf6145c-3a71-4776-9c46-a84b06f608bf}; ! Name of Object 1

