
OS:Version,
  {caf9523e-cccb-4673-bc6f-2431a3274c52}, ! Handle
  0.9.3;                                  ! Version Identifier

OS:SizingPeriod:DesignDay,
  {ead34c2b-2696-417d-8767-34fd69fd3233}, ! Handle
  WICHITA_FALLS Ann Clg 1% Condns Enth=>MDB, ! Name
  32.8,                                   ! Maximum Dry-Bulb Temperature {C}
  13,                                     ! Daily Dry-Bulb Temperature Range {deltaC}
  76800,                                  ! Humidity Indicating Conditions at Maximum Dry-Bulb {BasedOnField A3}
  97609,                                  ! Barometric Pressure {Pa}
  5.5,                                    ! Wind Speed {m/s}
  180,                                    ! Wind Direction {deg}
  0,                                      ! Sky Clearness
  0,                                      ! Rain Indicator
  0,                                      ! Snow Indicator
  21,                                     ! Day of Month
  7,                                      ! Month
  SummerDesignDay,                        ! Day Type
  0,                                      ! Daylight Saving Time Indicator
  Enthalpy,                               ! Humidity Indicating Type
  ,                                       ! Humidity Indicating Day Schedule Name
  DefaultMultipliers,                     ! Dry-Bulb Temperature Range Modifier Type
  ,                                       ! Dry-Bulb Temperature Range Modifier Schedule Name
  ASHRAETau,                              ! Solar Model Indicator
  ,                                       ! Beam Solar Day Schedule Name
  ,                                       ! Diffuse Solar Day Schedule Name
  0.44,                                   ! ASHRAE Taub {dimensionless}
  2.15;                                   ! ASHRAE Taud {dimensionless}

OS:ComponentData,
  {a00ef251-a337-4385-812c-bb6587e8c51e}, ! Handle
  Component Data 1,                       ! Name
  {40501622-da1c-4092-b9d7-d04ea470d567}, ! UUID
  {b3bb5d09-5c68-4576-a986-596272f6ecd3}, ! Version UUID
  1366310929,                             ! Creation Timestamp
  1366310929,                             ! Version Timestamp
  {ead34c2b-2696-417d-8767-34fd69fd3233}; ! Name of Object 1

