
OS:Version,
  {95aa48f0-ad8f-46e2-8f62-29dfffa29296}, ! Handle
  0.9.3;                                  ! Version Identifier

OS:SizingPeriod:DesignDay,
  {fe81f114-b76b-4c6a-8233-487cdb14ae80}, ! Handle
  Macon Ann Clg 2% Condns DB=>MWB,        ! Name
  33.5,                                   ! Maximum Dry-Bulb Temperature {C}
  11.1,                                   ! Daily Dry-Bulb Temperature Range {deltaC}
  23.9,                                   ! Humidity Indicating Conditions at Maximum Dry-Bulb {BasedOnField A3}
  100011,                                 ! Barometric Pressure {Pa}
  3.6,                                    ! Wind Speed {m/s}
  300,                                    ! Wind Direction {deg}
  0,                                      ! Sky Clearness
  0,                                      ! Rain Indicator
  0,                                      ! Snow Indicator
  21,                                     ! Day of Month
  7,                                      ! Month
  SummerDesignDay,                        ! Day Type
  0,                                      ! Daylight Saving Time Indicator
  Wetbulb,                                ! Humidity Indicating Type
  ,                                       ! Humidity Indicating Day Schedule Name
  DefaultMultipliers,                     ! Dry-Bulb Temperature Range Modifier Type
  ,                                       ! Dry-Bulb Temperature Range Modifier Schedule Name
  ASHRAETau,                              ! Solar Model Indicator
  ,                                       ! Beam Solar Day Schedule Name
  ,                                       ! Diffuse Solar Day Schedule Name
  0.549,                                  ! ASHRAE Taub {dimensionless}
  1.812;                                  ! ASHRAE Taud {dimensionless}

OS:ComponentData,
  {04686515-deb0-4b47-81fa-b20d5d32d557}, ! Handle
  Component Data 1,                       ! Name
  {89d32b89-eb4b-4b0a-815f-6ce13304cd71}, ! UUID
  {433bb237-82da-4c37-8058-07d3b92d7972}, ! Version UUID
  1366307016,                             ! Creation Timestamp
  1366307016,                             ! Version Timestamp
  {fe81f114-b76b-4c6a-8233-487cdb14ae80}; ! Name of Object 1

