
OS:Version,
  {77746d9e-907c-43c4-862d-8795698cd8aa}, ! Handle
  0.9.3;                                  ! Version Identifier

OS:SizingPeriod:DesignDay,
  {98e2a95f-41da-49e2-9aa1-74713bcc0951}, ! Handle
  Mount Vernon  Awos Ann Clg 2% Condns WB=>MDB, ! Name
  30.2,                                   ! Maximum Dry-Bulb Temperature {C}
  11,                                     ! Daily Dry-Bulb Temperature Range {deltaC}
  24.9,                                   ! Humidity Indicating Conditions at Maximum Dry-Bulb {BasedOnField A3}
  99583,                                  ! Barometric Pressure {Pa}
  3.9,                                    ! Wind Speed {m/s}
  200,                                    ! Wind Direction {deg}
  0,                                      ! Sky Clearness
  0,                                      ! Rain Indicator
  0,                                      ! Snow Indicator
  21,                                     ! Day of Month
  7,                                      ! Month
  SummerDesignDay,                        ! Day Type
  0,                                      ! Daylight Saving Time Indicator
  Wetbulb,                                ! Humidity Indicating Type
  ,                                       ! Humidity Indicating Day Schedule Name
  DefaultMultipliers,                     ! Dry-Bulb Temperature Range Modifier Type
  ,                                       ! Dry-Bulb Temperature Range Modifier Schedule Name
  ASHRAETau,                              ! Solar Model Indicator
  ,                                       ! Beam Solar Day Schedule Name
  ,                                       ! Diffuse Solar Day Schedule Name
  0.484,                                  ! ASHRAE Taub {dimensionless}
  1.959;                                  ! ASHRAE Taud {dimensionless}

OS:ComponentData,
  {b61cdc81-31ed-4009-93a9-2c5e4e93468a}, ! Handle
  Component Data 1,                       ! Name
  {9bb193aa-0230-4423-8a7d-0f9f96389d86}, ! UUID
  {90d818b6-46d8-4be6-85f2-1bca3c0d1ff2}, ! Version UUID
  1366307377,                             ! Creation Timestamp
  1366307377,                             ! Version Timestamp
  {98e2a95f-41da-49e2-9aa1-74713bcc0951}; ! Name of Object 1

