
OS:Version,
  {d665450d-d6d9-4abd-a7c4-05a50eb97e5b}, ! Handle
  0.9.3;                                  ! Version Identifier

OS:SizingPeriod:DesignDay,
  {736f4ad9-63a4-4745-a602-12730394c169}, ! Handle
  New York J F Kennedy IntL Ar Ann Clg 1% Condns DP=>MDB, ! Name
  26.1,                                   ! Maximum Dry-Bulb Temperature {C}
  7.4,                                    ! Daily Dry-Bulb Temperature Range {deltaC}
  23.2,                                   ! Humidity Indicating Conditions at Maximum Dry-Bulb {BasedOnField A3}
  101265,                                 ! Barometric Pressure {Pa}
  5.6,                                    ! Wind Speed {m/s}
  230,                                    ! Wind Direction {deg}
  0,                                      ! Sky Clearness
  0,                                      ! Rain Indicator
  0,                                      ! Snow Indicator
  21,                                     ! Day of Month
  7,                                      ! Month
  SummerDesignDay,                        ! Day Type
  0,                                      ! Daylight Saving Time Indicator
  Dewpoint,                               ! Humidity Indicating Type
  ,                                       ! Humidity Indicating Day Schedule Name
  DefaultMultipliers,                     ! Dry-Bulb Temperature Range Modifier Type
  ,                                       ! Dry-Bulb Temperature Range Modifier Schedule Name
  ASHRAETau,                              ! Solar Model Indicator
  ,                                       ! Beam Solar Day Schedule Name
  ,                                       ! Diffuse Solar Day Schedule Name
  0.541,                                  ! ASHRAE Taub {dimensionless}
  1.8;                                    ! ASHRAE Taud {dimensionless}

OS:ComponentData,
  {446a0c84-b9c9-42b4-bad7-a4678889126a}, ! Handle
  Component Data 1,                       ! Name
  {aeda4e75-95e0-4b81-86be-2eb4707612a7}, ! UUID
  {c73e9987-ceff-4d35-a016-b36cb11409e2}, ! Version UUID
  1366309666,                             ! Creation Timestamp
  1366309666,                             ! Version Timestamp
  {736f4ad9-63a4-4745-a602-12730394c169}; ! Name of Object 1

