
OS:Version,
  {156d0495-29e1-40c9-83c3-10740418555c}, ! Handle
  0.9.3;                                  ! Version Identifier

OS:SizingPeriod:DesignDay,
  {148e723d-b09d-4501-bae6-3ed43e6a74f0}, ! Handle
  MADISON Ann Clg 2% Condns Enth=>MDB,    ! Name
  27.5,                                   ! Maximum Dry-Bulb Temperature {C}
  11.1,                                   ! Daily Dry-Bulb Temperature Range {deltaC}
  68900,                                  ! Humidity Indicating Conditions at Maximum Dry-Bulb {BasedOnField A3}
  98217,                                  ! Barometric Pressure {Pa}
  5.1,                                    ! Wind Speed {m/s}
  180,                                    ! Wind Direction {deg}
  0,                                      ! Sky Clearness
  0,                                      ! Rain Indicator
  0,                                      ! Snow Indicator
  21,                                     ! Day of Month
  7,                                      ! Month
  SummerDesignDay,                        ! Day Type
  0,                                      ! Daylight Saving Time Indicator
  Enthalpy,                               ! Humidity Indicating Type
  ,                                       ! Humidity Indicating Day Schedule Name
  DefaultMultipliers,                     ! Dry-Bulb Temperature Range Modifier Type
  ,                                       ! Dry-Bulb Temperature Range Modifier Schedule Name
  ASHRAETau,                              ! Solar Model Indicator
  ,                                       ! Beam Solar Day Schedule Name
  ,                                       ! Diffuse Solar Day Schedule Name
  0.435,                                  ! ASHRAE Taub {dimensionless}
  2.109;                                  ! ASHRAE Taud {dimensionless}

OS:ComponentData,
  {9f60a2c4-b6dd-4c14-b325-42574b3d1ce4}, ! Handle
  Component Data 1,                       ! Name
  {8e138f81-cf95-45c5-ad12-290d5404ca76}, ! UUID
  {e5ea1071-1bd7-4dff-aeab-5fb651654d82}, ! Version UUID
  1366311533,                             ! Creation Timestamp
  1366311533,                             ! Version Timestamp
  {148e723d-b09d-4501-bae6-3ed43e6a74f0}; ! Name of Object 1

