
OS:Version,
  {f1e58333-7ec1-4935-9ed3-9757d47ee9da}, ! Handle
  0.9.3;                                  ! Version Identifier

OS:SizingPeriod:DesignDay,
  {5a807fc8-568d-4f15-95b9-d9d993a193cf}, ! Handle
  Tacoma Mcchord Afb Ann Clg 2% Condns DP=>MDB, ! Name
  19.7,                                   ! Maximum Dry-Bulb Temperature {C}
  12.8,                                   ! Daily Dry-Bulb Temperature Range {deltaC}
  14.1,                                   ! Humidity Indicating Conditions at Maximum Dry-Bulb {BasedOnField A3}
  100272,                                 ! Barometric Pressure {Pa}
  3.3,                                    ! Wind Speed {m/s}
  20,                                     ! Wind Direction {deg}
  0,                                      ! Sky Clearness
  0,                                      ! Rain Indicator
  0,                                      ! Snow Indicator
  21,                                     ! Day of Month
  8,                                      ! Month
  SummerDesignDay,                        ! Day Type
  0,                                      ! Daylight Saving Time Indicator
  Dewpoint,                               ! Humidity Indicating Type
  ,                                       ! Humidity Indicating Day Schedule Name
  DefaultMultipliers,                     ! Dry-Bulb Temperature Range Modifier Type
  ,                                       ! Dry-Bulb Temperature Range Modifier Schedule Name
  ASHRAETau,                              ! Solar Model Indicator
  ,                                       ! Beam Solar Day Schedule Name
  ,                                       ! Diffuse Solar Day Schedule Name
  0.353,                                  ! ASHRAE Taub {dimensionless}
  2.565;                                  ! ASHRAE Taud {dimensionless}

OS:ComponentData,
  {1c0747ff-923e-4f82-afef-6a218692f650}, ! Handle
  Component Data 1,                       ! Name
  {5b7dc6b0-2e3c-449b-a810-06823c6429a9}, ! UUID
  {c9edb5c9-f3cc-492c-aa87-1a3447371ca1}, ! Version UUID
  1366311407,                             ! Creation Timestamp
  1366311407,                             ! Version Timestamp
  {5a807fc8-568d-4f15-95b9-d9d993a193cf}; ! Name of Object 1

