
OS:Version,
  {bd0f473b-3d0d-45ff-9103-85c9f920eb43}, ! Handle
  0.9.3;                                  ! Version Identifier

OS:SizingPeriod:DesignDay,
  {c5c43d20-710e-4f47-96d0-a5af55084273}, ! Handle
  Madison Dane Co Regional Arpt Ann Htg Wind 99% Condns WS=>MCDB, ! Name
  -7.4,                                   ! Maximum Dry-Bulb Temperature {C}
  0,                                      ! Daily Dry-Bulb Temperature Range {deltaC}
  -7.4,                                   ! Humidity Indicating Conditions at Maximum Dry-Bulb {BasedOnField A3}
  98217,                                  ! Barometric Pressure {Pa}
  11.1,                                   ! Wind Speed {m/s}
  300,                                    ! Wind Direction {deg}
  0,                                      ! Sky Clearness
  0,                                      ! Rain Indicator
  0,                                      ! Snow Indicator
  21,                                     ! Day of Month
  1,                                      ! Month
  WinterDesignDay,                        ! Day Type
  0,                                      ! Daylight Saving Time Indicator
  Wetbulb,                                ! Humidity Indicating Type
  ,                                       ! Humidity Indicating Day Schedule Name
  DefaultMultipliers,                     ! Dry-Bulb Temperature Range Modifier Type
  ,                                       ! Dry-Bulb Temperature Range Modifier Schedule Name
  ASHRAEClearSky;                         ! Solar Model Indicator

OS:ComponentData,
  {2665facc-7e33-4a3e-90ee-3c2841ac4af4}, ! Handle
  Component Data 1,                       ! Name
  {5db530f7-f850-4b49-a948-c0fbb52d46a3}, ! UUID
  {2d2df26a-a907-4d3b-9211-d9df54eb6748}, ! Version UUID
  1366311525,                             ! Creation Timestamp
  1366311525,                             ! Version Timestamp
  {c5c43d20-710e-4f47-96d0-a5af55084273}; ! Name of Object 1

