
OS:Version,
  {2412d2fd-e213-4073-9ddf-910900d9869f}, ! Handle
  0.9.3;                                  ! Version Identifier

OS:SizingPeriod:DesignDay,
  {b9326af3-5998-476b-9ceb-110da73d6e5f}, ! Handle
  OLYMPIA Ann Clg 2% Condns Enth=>MDB,    ! Name
  25.4,                                   ! Maximum Dry-Bulb Temperature {C}
  14.6,                                   ! Daily Dry-Bulb Temperature Range {deltaC}
  50400,                                  ! Humidity Indicating Conditions at Maximum Dry-Bulb {BasedOnField A3}
  100594,                                 ! Barometric Pressure {Pa}
  3.4,                                    ! Wind Speed {m/s}
  20,                                     ! Wind Direction {deg}
  0,                                      ! Sky Clearness
  0,                                      ! Rain Indicator
  0,                                      ! Snow Indicator
  21,                                     ! Day of Month
  8,                                      ! Month
  SummerDesignDay,                        ! Day Type
  0,                                      ! Daylight Saving Time Indicator
  Enthalpy,                               ! Humidity Indicating Type
  ,                                       ! Humidity Indicating Day Schedule Name
  DefaultMultipliers,                     ! Dry-Bulb Temperature Range Modifier Type
  ,                                       ! Dry-Bulb Temperature Range Modifier Schedule Name
  ASHRAETau,                              ! Solar Model Indicator
  ,                                       ! Beam Solar Day Schedule Name
  ,                                       ! Diffuse Solar Day Schedule Name
  0.359,                                  ! ASHRAE Taub {dimensionless}
  2.536;                                  ! ASHRAE Taud {dimensionless}

OS:ComponentData,
  {b8e5373d-bc6d-4187-b309-e2c7328bb15c}, ! Handle
  Component Data 1,                       ! Name
  {9bab807c-fe48-4574-92b9-20df855765e2}, ! UUID
  {2afd221d-3b33-48cb-98b5-54361423a694}, ! Version UUID
  1366311306,                             ! Creation Timestamp
  1366311306,                             ! Version Timestamp
  {b9326af3-5998-476b-9ceb-110da73d6e5f}; ! Name of Object 1

