
OS:Version,
  {5332fdec-ac89-4c8c-bcc6-a9012676a8cc}, ! Handle
  0.9.3;                                  ! Version Identifier

OS:SizingPeriod:DesignDay,
  {62afe904-d018-4d9e-8a0b-8d5c6761dd96}, ! Handle
  MONTGOMERY Ann Htg Wind 99% Condns WS=>MCDB, ! Name
  8.4,                                    ! Maximum Dry-Bulb Temperature {C}
  0,                                      ! Daily Dry-Bulb Temperature Range {deltaC}
  8.4,                                    ! Humidity Indicating Conditions at Maximum Dry-Bulb {BasedOnField A3}
  100582,                                 ! Barometric Pressure {Pa}
  8.9,                                    ! Wind Speed {m/s}
  310,                                    ! Wind Direction {deg}
  0,                                      ! Sky Clearness
  0,                                      ! Rain Indicator
  0,                                      ! Snow Indicator
  21,                                     ! Day of Month
  1,                                      ! Month
  WinterDesignDay,                        ! Day Type
  0,                                      ! Daylight Saving Time Indicator
  Wetbulb,                                ! Humidity Indicating Type
  ,                                       ! Humidity Indicating Day Schedule Name
  DefaultMultipliers,                     ! Dry-Bulb Temperature Range Modifier Type
  ,                                       ! Dry-Bulb Temperature Range Modifier Schedule Name
  ASHRAEClearSky;                         ! Solar Model Indicator

OS:ComponentData,
  {c6578cbf-4359-4486-9883-46e8d2c63bc4}, ! Handle
  Component Data 1,                       ! Name
  {370b1f1b-16e6-41f9-a02a-b1a8c293fdfb}, ! UUID
  {85d54857-f21d-42ec-9cac-279ec3d3736b}, ! Version UUID
  1366305934,                             ! Creation Timestamp
  1366305934,                             ! Version Timestamp
  {62afe904-d018-4d9e-8a0b-8d5c6761dd96}; ! Name of Object 1

