
OS:Version,
  {b91c0fc8-9698-4a4d-9aba-b244e066cfc2}, ! Handle
  0.9.3;                                  ! Version Identifier

OS:SizingPeriod:DesignDay,
  {6b30afa0-fb4c-45ae-94fe-ce2ca93067ea}, ! Handle
  Providence T F Green State Ar Ann Clg 2% Condns DB=>MWB, ! Name
  28.8,                                   ! Maximum Dry-Bulb Temperature {C}
  9.6,                                    ! Daily Dry-Bulb Temperature Range {deltaC}
  21.3,                                   ! Humidity Indicating Conditions at Maximum Dry-Bulb {BasedOnField A3}
  101133,                                 ! Barometric Pressure {Pa}
  5.5,                                    ! Wind Speed {m/s}
  280,                                    ! Wind Direction {deg}
  0,                                      ! Sky Clearness
  0,                                      ! Rain Indicator
  0,                                      ! Snow Indicator
  21,                                     ! Day of Month
  7,                                      ! Month
  SummerDesignDay,                        ! Day Type
  0,                                      ! Daylight Saving Time Indicator
  Wetbulb,                                ! Humidity Indicating Type
  ,                                       ! Humidity Indicating Day Schedule Name
  DefaultMultipliers,                     ! Dry-Bulb Temperature Range Modifier Type
  ,                                       ! Dry-Bulb Temperature Range Modifier Schedule Name
  ASHRAETau,                              ! Solar Model Indicator
  ,                                       ! Beam Solar Day Schedule Name
  ,                                       ! Diffuse Solar Day Schedule Name
  0.507,                                  ! ASHRAE Taub {dimensionless}
  1.885;                                  ! ASHRAE Taud {dimensionless}

OS:ComponentData,
  {5e38faa7-78d1-4059-82af-358050c6833f}, ! Handle
  Component Data 1,                       ! Name
  {4b77a01b-6ce2-4b66-b45d-f6d91d87d424}, ! UUID
  {056cf11a-6cf0-4a85-b131-025a75e073e6}, ! Version UUID
  1366310303,                             ! Creation Timestamp
  1366310303,                             ! Version Timestamp
  {6b30afa0-fb4c-45ae-94fe-ce2ca93067ea}; ! Name of Object 1

