
OS:Version,
  {33f8ec08-1b45-455c-9127-966bca9e520d}, ! Handle
  0.9.3;                                  ! Version Identifier

OS:SizingPeriod:DesignDay,
  {67b9f3d1-9b57-44c3-87ff-39ae945097ab}, ! Handle
  Phillips Price Co Ann Htg 99% Condns DB, ! Name
  -24.8,                                  ! Maximum Dry-Bulb Temperature {C}
  0,                                      ! Daily Dry-Bulb Temperature Range {deltaC}
  -24.8,                                  ! Humidity Indicating Conditions at Maximum Dry-Bulb {BasedOnField A3}
  96046,                                  ! Barometric Pressure {Pa}
  0.8,                                    ! Wind Speed {m/s}
  280,                                    ! Wind Direction {deg}
  0,                                      ! Sky Clearness
  0,                                      ! Rain Indicator
  0,                                      ! Snow Indicator
  21,                                     ! Day of Month
  1,                                      ! Month
  WinterDesignDay,                        ! Day Type
  0,                                      ! Daylight Saving Time Indicator
  Wetbulb,                                ! Humidity Indicating Type
  ,                                       ! Humidity Indicating Day Schedule Name
  DefaultMultipliers,                     ! Dry-Bulb Temperature Range Modifier Type
  ,                                       ! Dry-Bulb Temperature Range Modifier Schedule Name
  ASHRAEClearSky;                         ! Solar Model Indicator

OS:ComponentData,
  {a03c0c18-8c7d-4929-9c48-046240e65bc4}, ! Handle
  Component Data 1,                       ! Name
  {d0006a7f-54d8-458b-9d59-823a54dc43e9}, ! UUID
  {52df3fde-007e-4350-b038-187672c132c1}, ! Version UUID
  1366311574,                             ! Creation Timestamp
  1366311574,                             ! Version Timestamp
  {67b9f3d1-9b57-44c3-87ff-39ae945097ab}; ! Name of Object 1

