
OS:Version,
  {6cfc4649-1f54-42cd-8a09-550ac85db80b}, ! Handle
  0.9.3;                                  ! Version Identifier

OS:SizingPeriod:DesignDay,
  {46c13b14-3cad-48ff-88f8-7ea9f93f44c8}, ! Handle
  Salem Ann Hum_n 99% Condns DP=>MCDB,    ! Name
  -1,                                     ! Maximum Dry-Bulb Temperature {C}
  0,                                      ! Daily Dry-Bulb Temperature Range {deltaC}
  -7.5,                                   ! Humidity Indicating Conditions at Maximum Dry-Bulb {BasedOnField A3}
  100594,                                 ! Barometric Pressure {Pa}
  2.1,                                    ! Wind Speed {m/s}
  0,                                      ! Wind Direction {deg}
  0,                                      ! Sky Clearness
  0,                                      ! Rain Indicator
  0,                                      ! Snow Indicator
  21,                                     ! Day of Month
  12,                                     ! Month
  WinterDesignDay,                        ! Day Type
  0,                                      ! Daylight Saving Time Indicator
  Dewpoint,                               ! Humidity Indicating Type
  ,                                       ! Humidity Indicating Day Schedule Name
  DefaultMultipliers,                     ! Dry-Bulb Temperature Range Modifier Type
  ,                                       ! Dry-Bulb Temperature Range Modifier Schedule Name
  ASHRAEClearSky;                         ! Solar Model Indicator

OS:ComponentData,
  {e976b3fd-a758-4349-94f4-711d8ae8aff4}, ! Handle
  Component Data 1,                       ! Name
  {121ad1ed-efcd-4989-a30f-d415917552b4}, ! UUID
  {3b5bb8eb-9e32-4e33-8b63-04b58396f65b}, ! Version UUID
  1366310108,                             ! Creation Timestamp
  1366310108,                             ! Version Timestamp
  {46c13b14-3cad-48ff-88f8-7ea9f93f44c8}; ! Name of Object 1

