
OS:Version,
  {3321089e-3fda-4130-bb21-61a3bd62a2ac}, ! Handle
  0.9.3;                                  ! Version Identifier

OS:SizingPeriod:DesignDay,
  {8e4c8036-0137-4890-800d-10882f0828e7}, ! Handle
  Mountain Home Afb Ann Clg 1% Condns WB=>MDB, ! Name
  32.4,                                   ! Maximum Dry-Bulb Temperature {C}
  18.4,                                   ! Daily Dry-Bulb Temperature Range {deltaC}
  18,                                     ! Humidity Indicating Conditions at Maximum Dry-Bulb {BasedOnField A3}
  90838,                                  ! Barometric Pressure {Pa}
  3.4,                                    ! Wind Speed {m/s}
  330,                                    ! Wind Direction {deg}
  0,                                      ! Sky Clearness
  0,                                      ! Rain Indicator
  0,                                      ! Snow Indicator
  21,                                     ! Day of Month
  7,                                      ! Month
  SummerDesignDay,                        ! Day Type
  0,                                      ! Daylight Saving Time Indicator
  Wetbulb,                                ! Humidity Indicating Type
  ,                                       ! Humidity Indicating Day Schedule Name
  DefaultMultipliers,                     ! Dry-Bulb Temperature Range Modifier Type
  ,                                       ! Dry-Bulb Temperature Range Modifier Schedule Name
  ASHRAETau,                              ! Solar Model Indicator
  ,                                       ! Beam Solar Day Schedule Name
  ,                                       ! Diffuse Solar Day Schedule Name
  0.425,                                  ! ASHRAE Taub {dimensionless}
  2.01;                                   ! ASHRAE Taud {dimensionless}

OS:ComponentData,
  {a4ece151-5ca3-4fec-9c06-d4469178597e}, ! Handle
  Component Data 1,                       ! Name
  {6ac4e89f-e352-4afa-8bb2-2f185a34053b}, ! UUID
  {72e7a80f-8778-4cbe-9520-422a4200cabf}, ! Version UUID
  1366307296,                             ! Creation Timestamp
  1366307296,                             ! Version Timestamp
  {8e4c8036-0137-4890-800d-10882f0828e7}; ! Name of Object 1

