
OS:Version,
  {66f6e759-518d-44b9-bb84-426ad73324d1}, ! Handle
  0.9.3;                                  ! Version Identifier

OS:SizingPeriod:DesignDay,
  {c898f380-25b0-4ddb-83cd-2899c1dfbcaf}, ! Handle
  Scottsbluff W B Heilig Field Ann Clg .4% Condns WB=>MDB, ! Name
  30.2,                                   ! Maximum Dry-Bulb Temperature {C}
  16.6,                                   ! Daily Dry-Bulb Temperature Range {deltaC}
  20.9,                                   ! Humidity Indicating Conditions at Maximum Dry-Bulb {BasedOnField A3}
  87694,                                  ! Barometric Pressure {Pa}
  4.7,                                    ! Wind Speed {m/s}
  300,                                    ! Wind Direction {deg}
  0,                                      ! Sky Clearness
  0,                                      ! Rain Indicator
  0,                                      ! Snow Indicator
  21,                                     ! Day of Month
  7,                                      ! Month
  SummerDesignDay,                        ! Day Type
  0,                                      ! Daylight Saving Time Indicator
  Wetbulb,                                ! Humidity Indicating Type
  ,                                       ! Humidity Indicating Day Schedule Name
  DefaultMultipliers,                     ! Dry-Bulb Temperature Range Modifier Type
  ,                                       ! Dry-Bulb Temperature Range Modifier Schedule Name
  ASHRAETau,                              ! Solar Model Indicator
  ,                                       ! Beam Solar Day Schedule Name
  ,                                       ! Diffuse Solar Day Schedule Name
  0.434,                                  ! ASHRAE Taub {dimensionless}
  1.982;                                  ! ASHRAE Taud {dimensionless}

OS:ComponentData,
  {55421dfc-14c8-49c9-beba-5402642b781c}, ! Handle
  Component Data 1,                       ! Name
  {37190322-cebf-4bd4-97a7-521442ec07f7}, ! UUID
  {1ad9f3b6-fb8c-43e2-a39d-a533b832d480}, ! Version UUID
  1366309195,                             ! Creation Timestamp
  1366309195,                             ! Version Timestamp
  {c898f380-25b0-4ddb-83cd-2899c1dfbcaf}; ! Name of Object 1

