
OS:Version,
  {7d2bc243-53c3-4b5c-a20a-9fbbbacbe4ba}, ! Handle
  0.9.3;                                  ! Version Identifier

OS:SizingPeriod:DesignDay,
  {5dcfc022-8d32-406e-a489-90313670b787}, ! Handle
  Provo Muni  Awos Ann Htg 99% Condns DB, ! Name
  -10.8,                                  ! Maximum Dry-Bulb Temperature {C}
  0,                                      ! Daily Dry-Bulb Temperature Range {deltaC}
  -10.8,                                  ! Humidity Indicating Conditions at Maximum Dry-Bulb {BasedOnField A3}
  85924,                                  ! Barometric Pressure {Pa}
  1.2,                                    ! Wind Speed {m/s}
  140,                                    ! Wind Direction {deg}
  0,                                      ! Sky Clearness
  0,                                      ! Rain Indicator
  0,                                      ! Snow Indicator
  21,                                     ! Day of Month
  12,                                     ! Month
  WinterDesignDay,                        ! Day Type
  0,                                      ! Daylight Saving Time Indicator
  Wetbulb,                                ! Humidity Indicating Type
  ,                                       ! Humidity Indicating Day Schedule Name
  DefaultMultipliers,                     ! Dry-Bulb Temperature Range Modifier Type
  ,                                       ! Dry-Bulb Temperature Range Modifier Schedule Name
  ASHRAEClearSky;                         ! Solar Model Indicator

OS:ComponentData,
  {f80cade5-319e-4933-be19-04df19d444bd}, ! Handle
  Component Data 1,                       ! Name
  {41acfd7f-f377-4703-a49e-fe17467d6f0a}, ! UUID
  {d517eef7-7e58-4d75-b81a-9a68977ba893}, ! Version UUID
  1366310976,                             ! Creation Timestamp
  1366310976,                             ! Version Timestamp
  {5dcfc022-8d32-406e-a489-90313670b787}; ! Name of Object 1

