
OS:Version,
  {e9fe7b6d-04ba-4892-a0e9-72d8a36f4f3a}, ! Handle
  0.9.3;                                  ! Version Identifier

OS:SizingPeriod:DesignDay,
  {d82d3a34-2ced-4eb4-a389-0aee72da5b33}, ! Handle
  Redmond Roberts Field Ann Clg 2% Condns DB=>MWB, ! Name
  30.3,                                   ! Maximum Dry-Bulb Temperature {C}
  20,                                     ! Daily Dry-Bulb Temperature Range {deltaC}
  15.4,                                   ! Humidity Indicating Conditions at Maximum Dry-Bulb {BasedOnField A3}
  90607,                                  ! Barometric Pressure {Pa}
  4.7,                                    ! Wind Speed {m/s}
  350,                                    ! Wind Direction {deg}
  0,                                      ! Sky Clearness
  0,                                      ! Rain Indicator
  0,                                      ! Snow Indicator
  21,                                     ! Day of Month
  7,                                      ! Month
  SummerDesignDay,                        ! Day Type
  0,                                      ! Daylight Saving Time Indicator
  Wetbulb,                                ! Humidity Indicating Type
  ,                                       ! Humidity Indicating Day Schedule Name
  DefaultMultipliers,                     ! Dry-Bulb Temperature Range Modifier Type
  ,                                       ! Dry-Bulb Temperature Range Modifier Schedule Name
  ASHRAETau,                              ! Solar Model Indicator
  ,                                       ! Beam Solar Day Schedule Name
  ,                                       ! Diffuse Solar Day Schedule Name
  0.355,                                  ! ASHRAE Taub {dimensionless}
  2.422;                                  ! ASHRAE Taud {dimensionless}

OS:ComponentData,
  {153ed85a-d5fa-4cf8-9623-65d1c4681954}, ! Handle
  Component Data 1,                       ! Name
  {6a865976-6db8-4aeb-bc0d-40dbf061a918}, ! UUID
  {c8e25158-bdb9-4d83-8444-cab2ca8ecf56}, ! Version UUID
  1366310097,                             ! Creation Timestamp
  1366310097,                             ! Version Timestamp
  {d82d3a34-2ced-4eb4-a389-0aee72da5b33}; ! Name of Object 1

