
OS:Version,
  {734b9c07-e304-46bb-b543-55c9a10e845a}, ! Handle
  0.9.3;                                  ! Version Identifier

OS:SizingPeriod:DesignDay,
  {6c4fc47e-f260-435e-b34e-48e030158975}, ! Handle
  Trinidad Las Animas County Ap Ann Htg Wind 99.6% Condns WS=>MCDB, ! Name
  8,                                      ! Maximum Dry-Bulb Temperature {C}
  0,                                      ! Daily Dry-Bulb Temperature Range {deltaC}
  8,                                      ! Humidity Indicating Conditions at Maximum Dry-Bulb {BasedOnField A3}
  81984,                                  ! Barometric Pressure {Pa}
  13,                                     ! Wind Speed {m/s}
  270,                                    ! Wind Direction {deg}
  0,                                      ! Sky Clearness
  0,                                      ! Rain Indicator
  0,                                      ! Snow Indicator
  21,                                     ! Day of Month
  12,                                     ! Month
  WinterDesignDay,                        ! Day Type
  0,                                      ! Daylight Saving Time Indicator
  Wetbulb,                                ! Humidity Indicating Type
  ,                                       ! Humidity Indicating Day Schedule Name
  DefaultMultipliers,                     ! Dry-Bulb Temperature Range Modifier Type
  ,                                       ! Dry-Bulb Temperature Range Modifier Schedule Name
  ASHRAEClearSky;                         ! Solar Model Indicator

