
OS:Version,
  {329f54fa-cfce-433d-a304-cb4671b1e749}, ! Handle
  0.9.3;                                  ! Version Identifier

OS:SizingPeriod:DesignDay,
  {51ce3e6b-beac-4ff6-9fee-39249fdddbc9}, ! Handle
  MINOT Ann Clg 2% Condns Enth=>MDB,      ! Name
  26.8,                                   ! Maximum Dry-Bulb Temperature {C}
  12.2,                                   ! Daily Dry-Bulb Temperature Range {deltaC}
  61500,                                  ! Humidity Indicating Conditions at Maximum Dry-Bulb {BasedOnField A3}
  95209,                                  ! Barometric Pressure {Pa}
  5.8,                                    ! Wind Speed {m/s}
  160,                                    ! Wind Direction {deg}
  0,                                      ! Sky Clearness
  0,                                      ! Rain Indicator
  0,                                      ! Snow Indicator
  21,                                     ! Day of Month
  7,                                      ! Month
  SummerDesignDay,                        ! Day Type
  0,                                      ! Daylight Saving Time Indicator
  Enthalpy,                               ! Humidity Indicating Type
  ,                                       ! Humidity Indicating Day Schedule Name
  DefaultMultipliers,                     ! Dry-Bulb Temperature Range Modifier Type
  ,                                       ! Dry-Bulb Temperature Range Modifier Schedule Name
  ASHRAETau,                              ! Solar Model Indicator
  ,                                       ! Beam Solar Day Schedule Name
  ,                                       ! Diffuse Solar Day Schedule Name
  0.386,                                  ! ASHRAE Taub {dimensionless}
  2.249;                                  ! ASHRAE Taud {dimensionless}

OS:ComponentData,
  {cf9cf3cb-0da1-48ad-a6e6-042b5cd2cbf4}, ! Handle
  Component Data 1,                       ! Name
  {9b9421eb-5cdb-4513-9d64-d88c711abcb0}, ! UUID
  {a8648dce-0bec-424c-ba73-9a96b6225bb4}, ! Version UUID
  1366309056,                             ! Creation Timestamp
  1366309056,                             ! Version Timestamp
  {51ce3e6b-beac-4ff6-9fee-39249fdddbc9}; ! Name of Object 1

