
OS:Version,
  {2cf4fdbe-b85c-4491-83fc-f5d31d56b455}, ! Handle
  0.9.3;                                  ! Version Identifier

OS:SizingPeriod:DesignDay,
  {7a8e0978-892d-4d20-a859-da3f8ebfdb2b}, ! Handle
  Tonopah Airport Ann Htg Wind 99% Condns WS=>MCDB, ! Name
  2.3,                                    ! Maximum Dry-Bulb Temperature {C}
  0,                                      ! Daily Dry-Bulb Temperature Range {deltaC}
  2.3,                                    ! Humidity Indicating Conditions at Maximum Dry-Bulb {BasedOnField A3}
  82960,                                  ! Barometric Pressure {Pa}
  11.8,                                   ! Wind Speed {m/s}
  350,                                    ! Wind Direction {deg}
  0,                                      ! Sky Clearness
  0,                                      ! Rain Indicator
  0,                                      ! Snow Indicator
  21,                                     ! Day of Month
  12,                                     ! Month
  WinterDesignDay,                        ! Day Type
  0,                                      ! Daylight Saving Time Indicator
  Wetbulb,                                ! Humidity Indicating Type
  ,                                       ! Humidity Indicating Day Schedule Name
  DefaultMultipliers,                     ! Dry-Bulb Temperature Range Modifier Type
  ,                                       ! Dry-Bulb Temperature Range Modifier Schedule Name
  ASHRAEClearSky;                         ! Solar Model Indicator

OS:ComponentData,
  {bb4a602c-80e5-4c19-bd40-1eb88004036c}, ! Handle
  Component Data 1,                       ! Name
  {d6b56715-83b5-4ed3-9b70-2f95d38cc3ee}, ! UUID
  {1f48e21a-8c56-4418-86a9-0d89e677579d}, ! Version UUID
  1366309554,                             ! Creation Timestamp
  1366309554,                             ! Version Timestamp
  {7a8e0978-892d-4d20-a859-da3f8ebfdb2b}; ! Name of Object 1

