
OS:Version,
  {86da0341-c55f-4c2c-91fe-bc879ae4b0d0}, ! Handle
  0.9.3;                                  ! Version Identifier

OS:SizingPeriod:DesignDay,
  {6929432c-5b9f-4d60-b62c-2fe0cebd810b}, ! Handle
  Miami Kendall Tamia Ann Htg 99% Condns DB, ! Name
  9.4,                                    ! Maximum Dry-Bulb Temperature {C}
  0,                                      ! Daily Dry-Bulb Temperature Range {deltaC}
  9.4,                                    ! Humidity Indicating Conditions at Maximum Dry-Bulb {BasedOnField A3}
  101289,                                 ! Barometric Pressure {Pa}
  3.2,                                    ! Wind Speed {m/s}
  350,                                    ! Wind Direction {deg}
  0,                                      ! Sky Clearness
  0,                                      ! Rain Indicator
  0,                                      ! Snow Indicator
  21,                                     ! Day of Month
  1,                                      ! Month
  WinterDesignDay,                        ! Day Type
  0,                                      ! Daylight Saving Time Indicator
  Wetbulb,                                ! Humidity Indicating Type
  ,                                       ! Humidity Indicating Day Schedule Name
  DefaultMultipliers,                     ! Dry-Bulb Temperature Range Modifier Type
  ,                                       ! Dry-Bulb Temperature Range Modifier Schedule Name
  ASHRAEClearSky;                         ! Solar Model Indicator

OS:ComponentData,
  {ca33e32f-f46a-4e81-91ea-490b648ddd18}, ! Handle
  Component Data 1,                       ! Name
  {d44f9aea-9673-4c4a-94a1-3eb8a40962e8}, ! UUID
  {0abb9ffc-eb33-44da-aede-cb9796a9e110}, ! Version UUID
  1366306855,                             ! Creation Timestamp
  1366306855,                             ! Version Timestamp
  {6929432c-5b9f-4d60-b62c-2fe0cebd810b}; ! Name of Object 1

