
OS:Version,
  {316b7b1e-fc4c-4e4f-af77-1b177abb9fcb}, ! Handle
  0.9.3;                                  ! Version Identifier

OS:SizingPeriod:DesignDay,
  {96dbfda7-5db0-4b82-9c3e-a75ceafc6a50}, ! Handle
  Sault Ste Marie Sanderson Fie Ann Clg 1% Condns DB=>MWB, ! Name
  26.9,                                   ! Maximum Dry-Bulb Temperature {C}
  11.7,                                   ! Daily Dry-Bulb Temperature Range {deltaC}
  20,                                     ! Humidity Indicating Conditions at Maximum Dry-Bulb {BasedOnField A3}
  98722,                                  ! Barometric Pressure {Pa}
  4.2,                                    ! Wind Speed {m/s}
  220,                                    ! Wind Direction {deg}
  0,                                      ! Sky Clearness
  0,                                      ! Rain Indicator
  0,                                      ! Snow Indicator
  21,                                     ! Day of Month
  7,                                      ! Month
  SummerDesignDay,                        ! Day Type
  0,                                      ! Daylight Saving Time Indicator
  Wetbulb,                                ! Humidity Indicating Type
  ,                                       ! Humidity Indicating Day Schedule Name
  DefaultMultipliers,                     ! Dry-Bulb Temperature Range Modifier Type
  ,                                       ! Dry-Bulb Temperature Range Modifier Schedule Name
  ASHRAETau,                              ! Solar Model Indicator
  ,                                       ! Beam Solar Day Schedule Name
  ,                                       ! Diffuse Solar Day Schedule Name
  0.412,                                  ! ASHRAE Taub {dimensionless}
  2.194;                                  ! ASHRAE Taud {dimensionless}

OS:ComponentData,
  {d60b36f7-bb84-4999-ba28-821343521ed0}, ! Handle
  Component Data 1,                       ! Name
  {a97b9596-51b4-4681-8739-6ccca6b31479}, ! UUID
  {f15343c2-e54f-4e9a-8913-1508433bee34}, ! Version UUID
  1366308105,                             ! Creation Timestamp
  1366308105,                             ! Version Timestamp
  {96dbfda7-5db0-4b82-9c3e-a75ceafc6a50}; ! Name of Object 1

