
OS:Version,
  {d44c8cae-055e-4431-a59d-3a1ed5b140c7}, ! Handle
  0.9.3;                                  ! Version Identifier

OS:SizingPeriod:DesignDay,
  {fdb0dd17-2cf7-42cc-8e19-1a924e6e6389}, ! Handle
  SOUTH_BEND Ann Hum_n 99.6% Condns DP=>MCDB, ! Name
  -18.3,                                  ! Maximum Dry-Bulb Temperature {C}
  0,                                      ! Daily Dry-Bulb Temperature Range {deltaC}
  -22.4,                                  ! Humidity Indicating Conditions at Maximum Dry-Bulb {BasedOnField A3}
  98522,                                  ! Barometric Pressure {Pa}
  5.1,                                    ! Wind Speed {m/s}
  230,                                    ! Wind Direction {deg}
  0,                                      ! Sky Clearness
  0,                                      ! Rain Indicator
  0,                                      ! Snow Indicator
  21,                                     ! Day of Month
  1,                                      ! Month
  WinterDesignDay,                        ! Day Type
  0,                                      ! Daylight Saving Time Indicator
  Dewpoint,                               ! Humidity Indicating Type
  ,                                       ! Humidity Indicating Day Schedule Name
  DefaultMultipliers,                     ! Dry-Bulb Temperature Range Modifier Type
  ,                                       ! Dry-Bulb Temperature Range Modifier Schedule Name
  ASHRAEClearSky;                         ! Solar Model Indicator

OS:ComponentData,
  {7c5004bd-6ccf-456a-85ac-55da1a61faf3}, ! Handle
  Component Data 1,                       ! Name
  {5cbdfd4b-1436-49f3-bc79-19b37dd305ac}, ! UUID
  {8bf0fc77-9682-4b74-bb5c-3ffae1214a85}, ! Version UUID
  1366307487,                             ! Creation Timestamp
  1366307487,                             ! Version Timestamp
  {fdb0dd17-2cf7-42cc-8e19-1a924e6e6389}; ! Name of Object 1

