
OS:Version,
  {8f19bf6d-0c05-40d9-911c-5f12278d0d5e}, ! Handle
  0.9.3;                                  ! Version Identifier

OS:SizingPeriod:DesignDay,
  {29913610-7f94-4024-8b46-5be5365d21aa}, ! Handle
  San Antonio Kelly Field Afb Ann Clg 2% Condns DB=>MWB, ! Name
  35.9,                                   ! Maximum Dry-Bulb Temperature {C}
  11.7,                                   ! Daily Dry-Bulb Temperature Range {deltaC}
  23.5,                                   ! Humidity Indicating Conditions at Maximum Dry-Bulb {BasedOnField A3}
  98851,                                  ! Barometric Pressure {Pa}
  4,                                      ! Wind Speed {m/s}
  150,                                    ! Wind Direction {deg}
  0,                                      ! Sky Clearness
  0,                                      ! Rain Indicator
  0,                                      ! Snow Indicator
  21,                                     ! Day of Month
  8,                                      ! Month
  SummerDesignDay,                        ! Day Type
  0,                                      ! Daylight Saving Time Indicator
  Wetbulb,                                ! Humidity Indicating Type
  ,                                       ! Humidity Indicating Day Schedule Name
  DefaultMultipliers,                     ! Dry-Bulb Temperature Range Modifier Type
  ,                                       ! Dry-Bulb Temperature Range Modifier Schedule Name
  ASHRAETau,                              ! Solar Model Indicator
  ,                                       ! Beam Solar Day Schedule Name
  ,                                       ! Diffuse Solar Day Schedule Name
  0.451,                                  ! ASHRAE Taub {dimensionless}
  2.14;                                   ! ASHRAE Taud {dimensionless}

OS:ComponentData,
  {ee770b9b-240d-4c4f-8501-c1524278b3e0}, ! Handle
  Component Data 1,                       ! Name
  {33dc05ab-e0b8-43d7-862d-f78ad49212fb}, ! UUID
  {fe91174b-9057-401b-9b70-6f0e72a74f83}, ! Version UUID
  1366310882,                             ! Creation Timestamp
  1366310882,                             ! Version Timestamp
  {29913610-7f94-4024-8b46-5be5365d21aa}; ! Name of Object 1

