
OS:Version,
  {fee21230-ab26-499d-8076-57ca974299e0}, ! Handle
  0.9.3;                                  ! Version Identifier

OS:SizingPeriod:DesignDay,
  {65e3c2ae-a3f0-474a-8662-10f3fb24881a}, ! Handle
  Sterling Rockfalls Ann Htg 99.6% Condns DB, ! Name
  -21.1,                                  ! Maximum Dry-Bulb Temperature {C}
  0,                                      ! Daily Dry-Bulb Temperature Range {deltaC}
  -21.1,                                  ! Humidity Indicating Conditions at Maximum Dry-Bulb {BasedOnField A3}
  98981,                                  ! Barometric Pressure {Pa}
  3.5,                                    ! Wind Speed {m/s}
  280,                                    ! Wind Direction {deg}
  0,                                      ! Sky Clearness
  0,                                      ! Rain Indicator
  0,                                      ! Snow Indicator
  21,                                     ! Day of Month
  1,                                      ! Month
  WinterDesignDay,                        ! Day Type
  0,                                      ! Daylight Saving Time Indicator
  Wetbulb,                                ! Humidity Indicating Type
  ,                                       ! Humidity Indicating Day Schedule Name
  DefaultMultipliers,                     ! Dry-Bulb Temperature Range Modifier Type
  ,                                       ! Dry-Bulb Temperature Range Modifier Schedule Name
  ASHRAEClearSky;                         ! Solar Model Indicator

OS:ComponentData,
  {96f7599a-dce3-49e0-b92e-e9b6b774252b}, ! Handle
  Component Data 1,                       ! Name
  {10dadd64-bb3b-421c-94cc-c9086df58fb3}, ! UUID
  {af3e068a-1388-48fa-823b-311b4d632906}, ! Version UUID
  1366307411,                             ! Creation Timestamp
  1366307411,                             ! Version Timestamp
  {65e3c2ae-a3f0-474a-8662-10f3fb24881a}; ! Name of Object 1

