
OS:Version,
  {3e3e4f30-7148-4186-8fb0-57c0f854234d}, ! Handle
  0.9.3;                                  ! Version Identifier

OS:SizingPeriod:DesignDay,
  {e56824c9-d1f4-4f7d-8ba3-c8443301af4a}, ! Handle
  New Bedford Rgnl Ann Htg Wind 99% Condns WS=>MCDB, ! Name
  0.5,                                    ! Maximum Dry-Bulb Temperature {C}
  0,                                      ! Daily Dry-Bulb Temperature Range {deltaC}
  0.5,                                    ! Humidity Indicating Conditions at Maximum Dry-Bulb {BasedOnField A3}
  101025,                                 ! Barometric Pressure {Pa}
  11.1,                                   ! Wind Speed {m/s}
  320,                                    ! Wind Direction {deg}
  0,                                      ! Sky Clearness
  0,                                      ! Rain Indicator
  0,                                      ! Snow Indicator
  21,                                     ! Day of Month
  1,                                      ! Month
  WinterDesignDay,                        ! Day Type
  0,                                      ! Daylight Saving Time Indicator
  Wetbulb,                                ! Humidity Indicating Type
  ,                                       ! Humidity Indicating Day Schedule Name
  DefaultMultipliers,                     ! Dry-Bulb Temperature Range Modifier Type
  ,                                       ! Dry-Bulb Temperature Range Modifier Schedule Name
  ASHRAEClearSky;                         ! Solar Model Indicator

OS:ComponentData,
  {bb3a81f4-0f4c-4b77-aca1-6eaf9a51878b}, ! Handle
  Component Data 1,                       ! Name
  {9e19d021-4c10-4287-a5f3-1a10a1965a96}, ! UUID
  {5ca22997-93ee-432d-bc30-4040f9d7bc6c}, ! Version UUID
  1366307805,                             ! Creation Timestamp
  1366307805,                             ! Version Timestamp
  {e56824c9-d1f4-4f7d-8ba3-c8443301af4a}; ! Name of Object 1

