
OS:Version,
  {ea366c3f-9912-4f64-ab82-79a918765b29}, ! Handle
  0.9.3;                                  ! Version Identifier

OS:SizingPeriod:DesignDay,
  {d1412b65-a760-4730-bcee-000179c58f06}, ! Handle
  Roswell Industrial Air Park Ann Clg 1% Condns DB=>MWB, ! Name
  36.4,                                   ! Maximum Dry-Bulb Temperature {C}
  14.1,                                   ! Daily Dry-Bulb Temperature Range {deltaC}
  18.4,                                   ! Humidity Indicating Conditions at Maximum Dry-Bulb {BasedOnField A3}
  88660,                                  ! Barometric Pressure {Pa}
  5.3,                                    ! Wind Speed {m/s}
  140,                                    ! Wind Direction {deg}
  0,                                      ! Sky Clearness
  0,                                      ! Rain Indicator
  0,                                      ! Snow Indicator
  21,                                     ! Day of Month
  7,                                      ! Month
  SummerDesignDay,                        ! Day Type
  0,                                      ! Daylight Saving Time Indicator
  Wetbulb,                                ! Humidity Indicating Type
  ,                                       ! Humidity Indicating Day Schedule Name
  DefaultMultipliers,                     ! Dry-Bulb Temperature Range Modifier Type
  ,                                       ! Dry-Bulb Temperature Range Modifier Schedule Name
  ASHRAETau,                              ! Solar Model Indicator
  ,                                       ! Beam Solar Day Schedule Name
  ,                                       ! Diffuse Solar Day Schedule Name
  0.461,                                  ! ASHRAE Taub {dimensionless}
  1.916;                                  ! ASHRAE Taud {dimensionless}

OS:ComponentData,
  {947c7fc4-d374-4613-a413-a4c1bfa64ef5}, ! Handle
  Component Data 1,                       ! Name
  {5c1adc0d-6dbc-4ddf-8608-a1a6181603a2}, ! UUID
  {5f8c6338-e7ee-45ab-951d-112b6cd6dcac}, ! Version UUID
  1366309428,                             ! Creation Timestamp
  1366309428,                             ! Version Timestamp
  {d1412b65-a760-4730-bcee-000179c58f06}; ! Name of Object 1

