
OS:Version,
  {882befa7-6168-4fcb-964f-939429e82f1c}, ! Handle
  0.9.3;                                  ! Version Identifier

OS:SizingPeriod:DesignDay,
  {4bcdaafc-4afb-4962-b8e2-b150c5900fa8}, ! Handle
  Mccomb Pike County Ap Ann Clg .4% Condns WB=>MDB, ! Name
  31.7,                                   ! Maximum Dry-Bulb Temperature {C}
  10.8,                                   ! Daily Dry-Bulb Temperature Range {deltaC}
  26.4,                                   ! Humidity Indicating Conditions at Maximum Dry-Bulb {BasedOnField A3}
  99820,                                  ! Barometric Pressure {Pa}
  2.9,                                    ! Wind Speed {m/s}
  250,                                    ! Wind Direction {deg}
  0,                                      ! Sky Clearness
  0,                                      ! Rain Indicator
  0,                                      ! Snow Indicator
  21,                                     ! Day of Month
  7,                                      ! Month
  SummerDesignDay,                        ! Day Type
  0,                                      ! Daylight Saving Time Indicator
  Wetbulb,                                ! Humidity Indicating Type
  ,                                       ! Humidity Indicating Day Schedule Name
  DefaultMultipliers,                     ! Dry-Bulb Temperature Range Modifier Type
  ,                                       ! Dry-Bulb Temperature Range Modifier Schedule Name
  ASHRAETau,                              ! Solar Model Indicator
  ,                                       ! Beam Solar Day Schedule Name
  ,                                       ! Diffuse Solar Day Schedule Name
  0.539,                                  ! ASHRAE Taub {dimensionless}
  1.852;                                  ! ASHRAE Taud {dimensionless}

OS:ComponentData,
  {43d83842-70f6-47a6-af31-a7b6dfbe4395}, ! Handle
  Component Data 1,                       ! Name
  {b745d3c2-010c-41e7-baa3-7ce7d15d510a}, ! UUID
  {17ce3765-2b5e-4923-885a-3c4f8dd7cb17}, ! Version UUID
  1366308656,                             ! Creation Timestamp
  1366308656,                             ! Version Timestamp
  {4bcdaafc-4afb-4962-b8e2-b150c5900fa8}; ! Name of Object 1

