
OS:Version,
  {711bacc5-8fab-407a-9a2b-84dbf242d5b0}, ! Handle
  0.9.3;                                  ! Version Identifier

OS:SizingPeriod:DesignDay,
  {09c87547-d1d3-498a-8ffe-8029331539ea}, ! Handle
  PORTLAND Ann Clg 2% Condns Enth=>MDB,   ! Name
  27.3,                                   ! Maximum Dry-Bulb Temperature {C}
  12.2,                                   ! Daily Dry-Bulb Temperature Range {deltaC}
  53600,                                  ! Humidity Indicating Conditions at Maximum Dry-Bulb {BasedOnField A3}
  101181,                                 ! Barometric Pressure {Pa}
  4.7,                                    ! Wind Speed {m/s}
  310,                                    ! Wind Direction {deg}
  0,                                      ! Sky Clearness
  0,                                      ! Rain Indicator
  0,                                      ! Snow Indicator
  21,                                     ! Day of Month
  8,                                      ! Month
  SummerDesignDay,                        ! Day Type
  0,                                      ! Daylight Saving Time Indicator
  Enthalpy,                               ! Humidity Indicating Type
  ,                                       ! Humidity Indicating Day Schedule Name
  DefaultMultipliers,                     ! Dry-Bulb Temperature Range Modifier Type
  ,                                       ! Dry-Bulb Temperature Range Modifier Schedule Name
  ASHRAETau,                              ! Solar Model Indicator
  ,                                       ! Beam Solar Day Schedule Name
  ,                                       ! Diffuse Solar Day Schedule Name
  0.358,                                  ! ASHRAE Taub {dimensionless}
  2.549;                                  ! ASHRAE Taud {dimensionless}

OS:ComponentData,
  {5ffc2e43-3e02-431c-a189-289f268ce028}, ! Handle
  Component Data 1,                       ! Name
  {4bac696c-811b-4cd6-b401-ca6776098a67}, ! UUID
  {7809518a-caf7-422a-8180-3e3f0c05b4c1}, ! Version UUID
  1366310075,                             ! Creation Timestamp
  1366310075,                             ! Version Timestamp
  {09c87547-d1d3-498a-8ffe-8029331539ea}; ! Name of Object 1

