
OS:Version,
  {a8a8114c-1091-4b72-83f1-c1235e415d0a}, ! Handle
  0.9.3;                                  ! Version Identifier

OS:SizingPeriod:DesignDay,
  {7a43194c-7894-4c37-b770-21d6291f724b}, ! Handle
  Quillayute State Airport Ann Clg 1% Condns Enth=>MDB, ! Name
  21.9,                                   ! Maximum Dry-Bulb Temperature {C}
  9.8,                                    ! Daily Dry-Bulb Temperature Range {deltaC}
  47700,                                  ! Humidity Indicating Conditions at Maximum Dry-Bulb {BasedOnField A3}
  100666,                                 ! Barometric Pressure {Pa}
  3.7,                                    ! Wind Speed {m/s}
  240,                                    ! Wind Direction {deg}
  0,                                      ! Sky Clearness
  0,                                      ! Rain Indicator
  0,                                      ! Snow Indicator
  21,                                     ! Day of Month
  8,                                      ! Month
  SummerDesignDay,                        ! Day Type
  0,                                      ! Daylight Saving Time Indicator
  Enthalpy,                               ! Humidity Indicating Type
  ,                                       ! Humidity Indicating Day Schedule Name
  DefaultMultipliers,                     ! Dry-Bulb Temperature Range Modifier Type
  ,                                       ! Dry-Bulb Temperature Range Modifier Schedule Name
  ASHRAETau,                              ! Solar Model Indicator
  ,                                       ! Beam Solar Day Schedule Name
  ,                                       ! Diffuse Solar Day Schedule Name
  0.351,                                  ! ASHRAE Taub {dimensionless}
  2.578;                                  ! ASHRAE Taud {dimensionless}

OS:ComponentData,
  {ed33e0ed-4d18-46f2-aef9-c41cce67b470}, ! Handle
  Component Data 1,                       ! Name
  {a9eb5d83-ba83-4fd6-9177-c358f8fd9122}, ! UUID
  {0eaf6771-29f5-40a3-beb0-c40055172650}, ! Version UUID
  1366311343,                             ! Creation Timestamp
  1366311343,                             ! Version Timestamp
  {7a43194c-7894-4c37-b770-21d6291f724b}; ! Name of Object 1

