
OS:Version,
  {c2876141-4c11-4d95-a641-4e185eca3cac}, ! Handle
  0.9.3;                                  ! Version Identifier

OS:SizingPeriod:DesignDay,
  {be04e996-19d5-4aff-86bd-eaae5974d639}, ! Handle
  Quantico Mcas Ann Htg Wind 99.6% Condns WS=>MCDB, ! Name
  3.6,                                    ! Maximum Dry-Bulb Temperature {C}
  0,                                      ! Daily Dry-Bulb Temperature Range {deltaC}
  3.6,                                    ! Humidity Indicating Conditions at Maximum Dry-Bulb {BasedOnField A3}
  101277,                                 ! Barometric Pressure {Pa}
  10.8,                                   ! Wind Speed {m/s}
  290,                                    ! Wind Direction {deg}
  0,                                      ! Sky Clearness
  0,                                      ! Rain Indicator
  0,                                      ! Snow Indicator
  21,                                     ! Day of Month
  1,                                      ! Month
  WinterDesignDay,                        ! Day Type
  0,                                      ! Daylight Saving Time Indicator
  Wetbulb,                                ! Humidity Indicating Type
  ,                                       ! Humidity Indicating Day Schedule Name
  DefaultMultipliers,                     ! Dry-Bulb Temperature Range Modifier Type
  ,                                       ! Dry-Bulb Temperature Range Modifier Schedule Name
  ASHRAEClearSky;                         ! Solar Model Indicator

OS:ComponentData,
  {d854bd54-1c1b-44dc-b12b-0df4deb8070d}, ! Handle
  Component Data 1,                       ! Name
  {f2ab4fa9-0359-442e-9e08-6010654542a3}, ! UUID
  {66f1e435-5d66-40f5-95c4-4cda8269b96f}, ! Version UUID
  1366311157,                             ! Creation Timestamp
  1366311157,                             ! Version Timestamp
  {be04e996-19d5-4aff-86bd-eaae5974d639}; ! Name of Object 1

