
OS:Version,
  {d8253a79-9044-4a24-a696-622b323efd99}, ! Handle
  0.9.3;                                  ! Version Identifier

OS:SizingPeriod:DesignDay,
  {242f49cf-6b42-45f8-a925-b14c6b071abc}, ! Handle
  Saginaw Tri City Intl Ap Ann Clg 1% Condns DB=>MWB, ! Name
  30.3,                                   ! Maximum Dry-Bulb Temperature {C}
  11.5,                                   ! Daily Dry-Bulb Temperature Range {deltaC}
  22.1,                                   ! Humidity Indicating Conditions at Maximum Dry-Bulb {BasedOnField A3}
  98934,                                  ! Barometric Pressure {Pa}
  5.8,                                    ! Wind Speed {m/s}
  240,                                    ! Wind Direction {deg}
  0,                                      ! Sky Clearness
  0,                                      ! Rain Indicator
  0,                                      ! Snow Indicator
  21,                                     ! Day of Month
  7,                                      ! Month
  SummerDesignDay,                        ! Day Type
  0,                                      ! Daylight Saving Time Indicator
  Wetbulb,                                ! Humidity Indicating Type
  ,                                       ! Humidity Indicating Day Schedule Name
  DefaultMultipliers,                     ! Dry-Bulb Temperature Range Modifier Type
  ,                                       ! Dry-Bulb Temperature Range Modifier Schedule Name
  ASHRAETau,                              ! Solar Model Indicator
  ,                                       ! Beam Solar Day Schedule Name
  ,                                       ! Diffuse Solar Day Schedule Name
  0.435,                                  ! ASHRAE Taub {dimensionless}
  2.102;                                  ! ASHRAE Taud {dimensionless}

OS:ComponentData,
  {0a27fde0-0559-4b08-adc8-b43f5e8ba5d7}, ! Handle
  Component Data 1,                       ! Name
  {e2120afc-bf3b-48e5-a2e5-1f4229ed33a2}, ! UUID
  {e2a739cd-cb87-4312-bd5e-8a2d73a973e1}, ! Version UUID
  1366308096,                             ! Creation Timestamp
  1366308096,                             ! Version Timestamp
  {242f49cf-6b42-45f8-a925-b14c6b071abc}; ! Name of Object 1

