
OS:Version,
  {93134c70-6baf-41b6-b2de-da7ee0f72276}, ! Handle
  0.9.3;                                  ! Version Identifier

OS:SizingPeriod:DesignDay,
  {73e9d32c-7e0d-4081-9565-3a7cca260899}, ! Handle
  New River Mcaf Ann Clg .4% Condns DP=>MDB, ! Name
  29.6,                                   ! Maximum Dry-Bulb Temperature {C}
  9.1,                                    ! Daily Dry-Bulb Temperature Range {deltaC}
  25.9,                                   ! Humidity Indicating Conditions at Maximum Dry-Bulb {BasedOnField A3}
  101265,                                 ! Barometric Pressure {Pa}
  3.4,                                    ! Wind Speed {m/s}
  240,                                    ! Wind Direction {deg}
  0,                                      ! Sky Clearness
  0,                                      ! Rain Indicator
  0,                                      ! Snow Indicator
  21,                                     ! Day of Month
  7,                                      ! Month
  SummerDesignDay,                        ! Day Type
  0,                                      ! Daylight Saving Time Indicator
  Dewpoint,                               ! Humidity Indicating Type
  ,                                       ! Humidity Indicating Day Schedule Name
  DefaultMultipliers,                     ! Dry-Bulb Temperature Range Modifier Type
  ,                                       ! Dry-Bulb Temperature Range Modifier Schedule Name
  ASHRAETau,                              ! Solar Model Indicator
  ,                                       ! Beam Solar Day Schedule Name
  ,                                       ! Diffuse Solar Day Schedule Name
  0.594,                                  ! ASHRAE Taub {dimensionless}
  1.709;                                  ! ASHRAE Taud {dimensionless}

OS:ComponentData,
  {72ad3ca3-40d3-444c-b6a9-550b9455458f}, ! Handle
  Component Data 1,                       ! Name
  {8299c4ea-4191-4611-ae20-6c801e142916}, ! UUID
  {7c8856bc-6a0c-4d0a-a0e1-6dbf1cdbfdd6}, ! Version UUID
  1366308957,                             ! Creation Timestamp
  1366308957,                             ! Version Timestamp
  {73e9d32c-7e0d-4081-9565-3a7cca260899}; ! Name of Object 1

