
OS:Version,
  {984ebb07-a8c0-4375-ac1d-d32dc0289828}, ! Handle
  0.9.3;                                  ! Version Identifier

OS:SizingPeriod:DesignDay,
  {8167676f-ce12-4281-a19d-726fbfe6e80a}, ! Handle
  Porterville  Awos Ann Clg 1% Condns Enth=>MDB, ! Name
  34.9,                                   ! Maximum Dry-Bulb Temperature {C}
  17.1,                                   ! Daily Dry-Bulb Temperature Range {deltaC}
  63400,                                  ! Humidity Indicating Conditions at Maximum Dry-Bulb {BasedOnField A3}
  99714,                                  ! Barometric Pressure {Pa}
  4,                                      ! Wind Speed {m/s}
  320,                                    ! Wind Direction {deg}
  0,                                      ! Sky Clearness
  0,                                      ! Rain Indicator
  0,                                      ! Snow Indicator
  21,                                     ! Day of Month
  7,                                      ! Month
  SummerDesignDay,                        ! Day Type
  0,                                      ! Daylight Saving Time Indicator
  Enthalpy,                               ! Humidity Indicating Type
  ,                                       ! Humidity Indicating Day Schedule Name
  DefaultMultipliers,                     ! Dry-Bulb Temperature Range Modifier Type
  ,                                       ! Dry-Bulb Temperature Range Modifier Schedule Name
  ASHRAETau,                              ! Solar Model Indicator
  ,                                       ! Beam Solar Day Schedule Name
  ,                                       ! Diffuse Solar Day Schedule Name
  0.458,                                  ! ASHRAE Taub {dimensionless}
  2.053;                                  ! ASHRAE Taud {dimensionless}

OS:ComponentData,
  {4e6f842e-c69e-4a5d-9552-56586879f637}, ! Handle
  Component Data 1,                       ! Name
  {3a299f93-536a-4458-a860-3724f09bea47}, ! UUID
  {3be1c755-06e5-484d-9e75-2210fd5eb932}, ! Version UUID
  1366306542,                             ! Creation Timestamp
  1366306542,                             ! Version Timestamp
  {8167676f-ce12-4281-a19d-726fbfe6e80a}; ! Name of Object 1

