
OS:Version,
  {3a3b450b-cdd7-411d-96ef-46ec118b64cd}, ! Handle
  0.9.3;                                  ! Version Identifier

OS:SizingPeriod:DesignDay,
  {cc3a666c-a718-40c7-a4e8-ed312228dbf2}, ! Handle
  Paso Robles Municipal Arpt Ann Clg .4% Condns DB=>MWB, ! Name
  38.9,                                   ! Maximum Dry-Bulb Temperature {C}
  21,                                     ! Daily Dry-Bulb Temperature Range {deltaC}
  19.9,                                   ! Humidity Indicating Conditions at Maximum Dry-Bulb {BasedOnField A3}
  98428,                                  ! Barometric Pressure {Pa}
  4.4,                                    ! Wind Speed {m/s}
  310,                                    ! Wind Direction {deg}
  0,                                      ! Sky Clearness
  0,                                      ! Rain Indicator
  0,                                      ! Snow Indicator
  21,                                     ! Day of Month
  7,                                      ! Month
  SummerDesignDay,                        ! Day Type
  0,                                      ! Daylight Saving Time Indicator
  Wetbulb,                                ! Humidity Indicating Type
  ,                                       ! Humidity Indicating Day Schedule Name
  DefaultMultipliers,                     ! Dry-Bulb Temperature Range Modifier Type
  ,                                       ! Dry-Bulb Temperature Range Modifier Schedule Name
  ASHRAETau,                              ! Solar Model Indicator
  ,                                       ! Beam Solar Day Schedule Name
  ,                                       ! Diffuse Solar Day Schedule Name
  0.381,                                  ! ASHRAE Taub {dimensionless}
  2.343;                                  ! ASHRAE Taud {dimensionless}

OS:ComponentData,
  {a87ac9b5-b30b-448f-b84b-88ddbfdd6dd5}, ! Handle
  Component Data 1,                       ! Name
  {84e65b17-bada-43e1-ac04-97bd01683179}, ! UUID
  {5f68c771-1086-4dc7-92d0-7ae28bc508d6}, ! Version UUID
  1366306533,                             ! Creation Timestamp
  1366306533,                             ! Version Timestamp
  {cc3a666c-a718-40c7-a4e8-ed312228dbf2}; ! Name of Object 1

