
OS:Version,
  {725425b8-8502-4b94-8ab0-c69af45de3e0}, ! Handle
  0.9.3;                                  ! Version Identifier

OS:SizingPeriod:DesignDay,
  {c29dbfd4-0c75-4285-8295-defd2ac35ef7}, ! Handle
  MISSOULA Ann Clg 1% Condns DB=>MWB,     ! Name
  31.8,                                   ! Maximum Dry-Bulb Temperature {C}
  17.5,                                   ! Daily Dry-Bulb Temperature Range {deltaC}
  16.5,                                   ! Humidity Indicating Conditions at Maximum Dry-Bulb {BasedOnField A3}
  90180,                                  ! Barometric Pressure {Pa}
  4.4,                                    ! Wind Speed {m/s}
  320,                                    ! Wind Direction {deg}
  0,                                      ! Sky Clearness
  0,                                      ! Rain Indicator
  0,                                      ! Snow Indicator
  21,                                     ! Day of Month
  7,                                      ! Month
  SummerDesignDay,                        ! Day Type
  0,                                      ! Daylight Saving Time Indicator
  Wetbulb,                                ! Humidity Indicating Type
  ,                                       ! Humidity Indicating Day Schedule Name
  DefaultMultipliers,                     ! Dry-Bulb Temperature Range Modifier Type
  ,                                       ! Dry-Bulb Temperature Range Modifier Schedule Name
  ASHRAETau,                              ! Solar Model Indicator
  ,                                       ! Beam Solar Day Schedule Name
  ,                                       ! Diffuse Solar Day Schedule Name
  0.357,                                  ! ASHRAE Taub {dimensionless}
  2.409;                                  ! ASHRAE Taud {dimensionless}

OS:ComponentData,
  {66b1e8a0-bb35-43a0-8b17-4a73b3415257}, ! Handle
  Component Data 1,                       ! Name
  {5213b0e6-d2b5-43c8-8a56-293f728de892}, ! UUID
  {018a8275-854a-4e84-9bf0-36807dcc37d5}, ! Version UUID
  1366308841,                             ! Creation Timestamp
  1366308841,                             ! Version Timestamp
  {c29dbfd4-0c75-4285-8295-defd2ac35ef7}; ! Name of Object 1

