
OS:Version,
  {bfc0e94d-bd64-40b4-8ea8-fcd09ac5288a}, ! Handle
  0.9.3;                                  ! Version Identifier

OS:SizingPeriod:DesignDay,
  {5241c151-dccc-4a80-8839-3b960b5d2cd8}, ! Handle
  Roanoke Regional Ap Ann Clg 1% Condns Enth=>MDB, ! Name
  29.7,                                   ! Maximum Dry-Bulb Temperature {C}
  10.6,                                   ! Daily Dry-Bulb Temperature Range {deltaC}
  72000,                                  ! Humidity Indicating Conditions at Maximum Dry-Bulb {BasedOnField A3}
  97190,                                  ! Barometric Pressure {Pa}
  4,                                      ! Wind Speed {m/s}
  280,                                    ! Wind Direction {deg}
  0,                                      ! Sky Clearness
  0,                                      ! Rain Indicator
  0,                                      ! Snow Indicator
  21,                                     ! Day of Month
  7,                                      ! Month
  SummerDesignDay,                        ! Day Type
  0,                                      ! Daylight Saving Time Indicator
  Enthalpy,                               ! Humidity Indicating Type
  ,                                       ! Humidity Indicating Day Schedule Name
  DefaultMultipliers,                     ! Dry-Bulb Temperature Range Modifier Type
  ,                                       ! Dry-Bulb Temperature Range Modifier Schedule Name
  ASHRAETau,                              ! Solar Model Indicator
  ,                                       ! Beam Solar Day Schedule Name
  ,                                       ! Diffuse Solar Day Schedule Name
  0.529,                                  ! ASHRAE Taub {dimensionless}
  1.818;                                  ! ASHRAE Taud {dimensionless}

OS:ComponentData,
  {dbbe1d1b-c391-438d-b196-c5615b8f1296}, ! Handle
  Component Data 1,                       ! Name
  {b18bea00-ab69-4167-84a4-8b58c833836e}, ! UUID
  {66a098f3-5347-4412-ab68-94df26b9036c}, ! Version UUID
  1366311193,                             ! Creation Timestamp
  1366311193,                             ! Version Timestamp
  {5241c151-dccc-4a80-8839-3b960b5d2cd8}; ! Name of Object 1

