
OS:Version,
  {e1567d85-8792-4f7f-80d8-34ceece46849}, ! Handle
  0.9.3;                                  ! Version Identifier

OS:SizingPeriod:DesignDay,
  {74d154d1-35a8-44ea-9cfe-8118e2bfafd7}, ! Handle
  Paducah Barkley Regional Ap Ann Clg 2% Condns Enth=>MDB, ! Name
  30.7,                                   ! Maximum Dry-Bulb Temperature {C}
  10.8,                                   ! Daily Dry-Bulb Temperature Range {deltaC}
  77900,                                  ! Humidity Indicating Conditions at Maximum Dry-Bulb {BasedOnField A3}
  99844,                                  ! Barometric Pressure {Pa}
  3.6,                                    ! Wind Speed {m/s}
  180,                                    ! Wind Direction {deg}
  0,                                      ! Sky Clearness
  0,                                      ! Rain Indicator
  0,                                      ! Snow Indicator
  21,                                     ! Day of Month
  7,                                      ! Month
  SummerDesignDay,                        ! Day Type
  0,                                      ! Daylight Saving Time Indicator
  Enthalpy,                               ! Humidity Indicating Type
  ,                                       ! Humidity Indicating Day Schedule Name
  DefaultMultipliers,                     ! Dry-Bulb Temperature Range Modifier Type
  ,                                       ! Dry-Bulb Temperature Range Modifier Schedule Name
  ASHRAETau,                              ! Solar Model Indicator
  ,                                       ! Beam Solar Day Schedule Name
  ,                                       ! Diffuse Solar Day Schedule Name
  0.495,                                  ! ASHRAE Taub {dimensionless}
  1.94;                                   ! ASHRAE Taud {dimensionless}

