
OS:Version,
  {881bbe26-c833-44b2-8245-1d41ebc8e3b1}, ! Handle
  0.9.3;                                  ! Version Identifier

OS:SizingPeriod:DesignDay,
  {e40bfb30-5e78-41cd-81c7-3c0e5e408361}, ! Handle
  Paducah Barkley Regional Ap Ann Clg 2% Condns Enth=>MDB, ! Name
  30.7,                                   ! Maximum Dry-Bulb Temperature {C}
  10.8,                                   ! Daily Dry-Bulb Temperature Range {deltaC}
  77900,                                  ! Humidity Indicating Conditions at Maximum Dry-Bulb {BasedOnField A3}
  99844,                                  ! Barometric Pressure {Pa}
  3.6,                                    ! Wind Speed {m/s}
  180,                                    ! Wind Direction {deg}
  0,                                      ! Sky Clearness
  0,                                      ! Rain Indicator
  0,                                      ! Snow Indicator
  21,                                     ! Day of Month
  7,                                      ! Month
  SummerDesignDay,                        ! Day Type
  0,                                      ! Daylight Saving Time Indicator
  Enthalpy,                               ! Humidity Indicating Type
  ,                                       ! Humidity Indicating Day Schedule Name
  DefaultMultipliers,                     ! Dry-Bulb Temperature Range Modifier Type
  ,                                       ! Dry-Bulb Temperature Range Modifier Schedule Name
  ASHRAETau,                              ! Solar Model Indicator
  ,                                       ! Beam Solar Day Schedule Name
  ,                                       ! Diffuse Solar Day Schedule Name
  0.495,                                  ! ASHRAE Taub {dimensionless}
  1.94;                                   ! ASHRAE Taud {dimensionless}

OS:ComponentData,
  {fcc3df88-a2c5-4669-a9cc-883e158a3b18}, ! Handle
  Component Data 1,                       ! Name
  {627a817e-9fff-412b-972f-c9974dfd5d30}, ! UUID
  {601407b7-42c2-40bd-b15d-fdc70433d590}, ! Version UUID
  1366307680,                             ! Creation Timestamp
  1366307680,                             ! Version Timestamp
  {e40bfb30-5e78-41cd-81c7-3c0e5e408361}; ! Name of Object 1

