
OS:Version,
  {fd4ecd0c-1d49-4a86-9eb0-4029fb2bfb00}, ! Handle
  0.9.3;                                  ! Version Identifier

OS:SizingPeriod:DesignDay,
  {23debac2-e588-41a5-8f96-fc2703ef79fc}, ! Handle
  Salt Lake City Ann Clg 1% Condns DB=>MWB, ! Name
  34.9,                                   ! Maximum Dry-Bulb Temperature {C}
  14.4,                                   ! Daily Dry-Bulb Temperature Range {deltaC}
  17,                                     ! Humidity Indicating Conditions at Maximum Dry-Bulb {BasedOnField A3}
  86779,                                  ! Barometric Pressure {Pa}
  5.1,                                    ! Wind Speed {m/s}
  340,                                    ! Wind Direction {deg}
  0,                                      ! Sky Clearness
  0,                                      ! Rain Indicator
  0,                                      ! Snow Indicator
  21,                                     ! Day of Month
  7,                                      ! Month
  SummerDesignDay,                        ! Day Type
  0,                                      ! Daylight Saving Time Indicator
  Wetbulb,                                ! Humidity Indicating Type
  ,                                       ! Humidity Indicating Day Schedule Name
  DefaultMultipliers,                     ! Dry-Bulb Temperature Range Modifier Type
  ,                                       ! Dry-Bulb Temperature Range Modifier Schedule Name
  ASHRAETau,                              ! Solar Model Indicator
  ,                                       ! Beam Solar Day Schedule Name
  ,                                       ! Diffuse Solar Day Schedule Name
  0.44,                                   ! ASHRAE Taub {dimensionless}
  1.968;                                  ! ASHRAE Taud {dimensionless}

OS:ComponentData,
  {79d5ffa6-f128-4980-917b-cc3a590bdac9}, ! Handle
  Component Data 1,                       ! Name
  {6c45955e-b298-46b2-9a46-4517a79c6a93}, ! UUID
  {cb9384de-bbab-4053-8da7-0f5114a91a59}, ! Version UUID
  1366310993,                             ! Creation Timestamp
  1366310993,                             ! Version Timestamp
  {23debac2-e588-41a5-8f96-fc2703ef79fc}; ! Name of Object 1

