
OS:Version,
  {1dc07f5a-38d2-46c9-aa41-2f632f685aef}, ! Handle
  0.9.3;                                  ! Version Identifier

OS:SizingPeriod:DesignDay,
  {5addad11-dc41-4980-9bbc-2170edbd072e}, ! Handle
  Orlando Ann Clg 2% Condns DB=>MWB,      ! Name
  32.8,                                   ! Maximum Dry-Bulb Temperature {C}
  8.8,                                    ! Daily Dry-Bulb Temperature Range {deltaC}
  24.4,                                   ! Humidity Indicating Conditions at Maximum Dry-Bulb {BasedOnField A3}
  100941,                                 ! Barometric Pressure {Pa}
  3.7,                                    ! Wind Speed {m/s}
  270,                                    ! Wind Direction {deg}
  0,                                      ! Sky Clearness
  0,                                      ! Rain Indicator
  0,                                      ! Snow Indicator
  21,                                     ! Day of Month
  7,                                      ! Month
  SummerDesignDay,                        ! Day Type
  0,                                      ! Daylight Saving Time Indicator
  Wetbulb,                                ! Humidity Indicating Type
  ,                                       ! Humidity Indicating Day Schedule Name
  DefaultMultipliers,                     ! Dry-Bulb Temperature Range Modifier Type
  ,                                       ! Dry-Bulb Temperature Range Modifier Schedule Name
  ASHRAETau,                              ! Solar Model Indicator
  ,                                       ! Beam Solar Day Schedule Name
  ,                                       ! Diffuse Solar Day Schedule Name
  0.516,                                  ! ASHRAE Taub {dimensionless}
  1.924;                                  ! ASHRAE Taud {dimensionless}

OS:ComponentData,
  {eebf3bbc-62fc-44fc-bb97-2530ef7b3d48}, ! Handle
  Component Data 1,                       ! Name
  {e7ea535b-de89-4c85-beec-c1f86a7f0491}, ! UUID
  {2389cc94-b9b3-4eea-9ffc-99f0e1513029}, ! Version UUID
  1366306888,                             ! Creation Timestamp
  1366306888,                             ! Version Timestamp
  {5addad11-dc41-4980-9bbc-2170edbd072e}; ! Name of Object 1

