
OS:Version,
  {6dcea038-a2ac-4505-8f1d-9844ee0fa797}, ! Handle
  0.9.3;                                  ! Version Identifier

OS:SizingPeriod:DesignDay,
  {20537aaf-c491-44f8-ab7e-c99230a636ff}, ! Handle
  Shreveport Regional Arpt Ann Htg Wind 99% Condns WS=>MCDB, ! Name
  12.4,                                   ! Maximum Dry-Bulb Temperature {C}
  0,                                      ! Daily Dry-Bulb Temperature Range {deltaC}
  12.4,                                   ! Humidity Indicating Conditions at Maximum Dry-Bulb {BasedOnField A3}
  100403,                                 ! Barometric Pressure {Pa}
  9.3,                                    ! Wind Speed {m/s}
  350,                                    ! Wind Direction {deg}
  0,                                      ! Sky Clearness
  0,                                      ! Rain Indicator
  0,                                      ! Snow Indicator
  21,                                     ! Day of Month
  1,                                      ! Month
  WinterDesignDay,                        ! Day Type
  0,                                      ! Daylight Saving Time Indicator
  Wetbulb,                                ! Humidity Indicating Type
  ,                                       ! Humidity Indicating Day Schedule Name
  DefaultMultipliers,                     ! Dry-Bulb Temperature Range Modifier Type
  ,                                       ! Dry-Bulb Temperature Range Modifier Schedule Name
  ASHRAEClearSky;                         ! Solar Model Indicator

