
OS:Version,
  {22e37e66-4a62-45c5-9345-9d591bc5fd16}, ! Handle
  0.9.3;                                  ! Version Identifier

OS:SizingPeriod:DesignDay,
  {e2e09029-139f-423a-bdb7-2101a93798df}, ! Handle
  Shreveport Regional Arpt Ann Htg Wind 99% Condns WS=>MCDB, ! Name
  12.4,                                   ! Maximum Dry-Bulb Temperature {C}
  0,                                      ! Daily Dry-Bulb Temperature Range {deltaC}
  12.4,                                   ! Humidity Indicating Conditions at Maximum Dry-Bulb {BasedOnField A3}
  100403,                                 ! Barometric Pressure {Pa}
  9.3,                                    ! Wind Speed {m/s}
  350,                                    ! Wind Direction {deg}
  0,                                      ! Sky Clearness
  0,                                      ! Rain Indicator
  0,                                      ! Snow Indicator
  21,                                     ! Day of Month
  1,                                      ! Month
  WinterDesignDay,                        ! Day Type
  0,                                      ! Daylight Saving Time Indicator
  Wetbulb,                                ! Humidity Indicating Type
  ,                                       ! Humidity Indicating Day Schedule Name
  DefaultMultipliers,                     ! Dry-Bulb Temperature Range Modifier Type
  ,                                       ! Dry-Bulb Temperature Range Modifier Schedule Name
  ASHRAEClearSky;                         ! Solar Model Indicator

OS:ComponentData,
  {8e4a6209-0d62-4da9-99e7-2bc3a88cb4ed}, ! Handle
  Component Data 1,                       ! Name
  {f36a8dab-bdcf-44c4-bcdf-d9a4be43301b}, ! UUID
  {cd26f297-8519-41e1-955e-f9141affad7c}, ! Version UUID
  1366307773,                             ! Creation Timestamp
  1366307773,                             ! Version Timestamp
  {e2e09029-139f-423a-bdb7-2101a93798df}; ! Name of Object 1

