
OS:Version,
  {c94778a5-48fd-4b96-a2ad-7af43b2126b1}, ! Handle
  0.9.3;                                  ! Version Identifier

OS:SizingPeriod:DesignDay,
  {6affe62b-db2a-47cf-8f0c-e67fd98fab72}, ! Handle
  Nasa Shuttle Fclty Ann Clg 1% Condns DB=>MWB, ! Name
  32.5,                                   ! Maximum Dry-Bulb Temperature {C}
  8.7,                                    ! Daily Dry-Bulb Temperature Range {deltaC}
  25.5,                                   ! Humidity Indicating Conditions at Maximum Dry-Bulb {BasedOnField A3}
  101289,                                 ! Barometric Pressure {Pa}
  3.5,                                    ! Wind Speed {m/s}
  240,                                    ! Wind Direction {deg}
  0,                                      ! Sky Clearness
  0,                                      ! Rain Indicator
  0,                                      ! Snow Indicator
  21,                                     ! Day of Month
  7,                                      ! Month
  SummerDesignDay,                        ! Day Type
  0,                                      ! Daylight Saving Time Indicator
  Wetbulb,                                ! Humidity Indicating Type
  ,                                       ! Humidity Indicating Day Schedule Name
  DefaultMultipliers,                     ! Dry-Bulb Temperature Range Modifier Type
  ,                                       ! Dry-Bulb Temperature Range Modifier Schedule Name
  ASHRAETau,                              ! Solar Model Indicator
  ,                                       ! Beam Solar Day Schedule Name
  ,                                       ! Diffuse Solar Day Schedule Name
  0.504,                                  ! ASHRAE Taub {dimensionless}
  1.981;                                  ! ASHRAE Taud {dimensionless}

OS:ComponentData,
  {a53f9261-2cc6-4499-83ce-06fe423ff461}, ! Handle
  Component Data 1,                       ! Name
  {be1094c1-3c7e-4518-933c-d7bbeafbbd39}, ! UUID
  {55413097-ff78-4088-95a2-7de6f26b870f}, ! Version UUID
  1366306877,                             ! Creation Timestamp
  1366306877,                             ! Version Timestamp
  {6affe62b-db2a-47cf-8f0c-e67fd98fab72}; ! Name of Object 1

