
OS:Version,
  {fde9f847-258b-4d05-8ec8-8a62b6508767}, ! Handle
  0.9.3;                                  ! Version Identifier

OS:SizingPeriod:DesignDay,
  {07f168cf-0c8f-49ff-aa89-b39605cb0f4a}, ! Handle
  Rochester Ann Hum_n 99.6% Condns DP=>MCDB, ! Name
  -15.9,                                  ! Maximum Dry-Bulb Temperature {C}
  0,                                      ! Daily Dry-Bulb Temperature Range {deltaC}
  -20.6,                                  ! Humidity Indicating Conditions at Maximum Dry-Bulb {BasedOnField A3}
  99311,                                  ! Barometric Pressure {Pa}
  3.9,                                    ! Wind Speed {m/s}
  240,                                    ! Wind Direction {deg}
  0,                                      ! Sky Clearness
  0,                                      ! Rain Indicator
  0,                                      ! Snow Indicator
  21,                                     ! Day of Month
  1,                                      ! Month
  WinterDesignDay,                        ! Day Type
  0,                                      ! Daylight Saving Time Indicator
  Dewpoint,                               ! Humidity Indicating Type
  ,                                       ! Humidity Indicating Day Schedule Name
  DefaultMultipliers,                     ! Dry-Bulb Temperature Range Modifier Type
  ,                                       ! Dry-Bulb Temperature Range Modifier Schedule Name
  ASHRAEClearSky;                         ! Solar Model Indicator

OS:ComponentData,
  {7191658a-78df-482a-bc19-445242038187}, ! Handle
  Component Data 1,                       ! Name
  {82ce0213-f9f9-432d-ae90-d57a91573108}, ! UUID
  {5931f52d-714c-49ee-823d-b99fc076cdd4}, ! Version UUID
  1366309713,                             ! Creation Timestamp
  1366309713,                             ! Version Timestamp
  {07f168cf-0c8f-49ff-aa89-b39605cb0f4a}; ! Name of Object 1

