
OS:Version,
  {a1193c01-172c-4d35-b6cb-82f550492d62}, ! Handle
  0.9.3;                                  ! Version Identifier

OS:SizingPeriod:DesignDay,
  {faa22054-21e1-4b1d-b5af-03ec75c59bfa}, ! Handle
  Valparaiso Elgin Afb Ann Clg 2% Condns WB=>MDB, ! Name
  29.8,                                   ! Maximum Dry-Bulb Temperature {C}
  8,                                      ! Daily Dry-Bulb Temperature Range {deltaC}
  26,                                     ! Humidity Indicating Conditions at Maximum Dry-Bulb {BasedOnField A3}
  101085,                                 ! Barometric Pressure {Pa}
  4.1,                                    ! Wind Speed {m/s}
  210,                                    ! Wind Direction {deg}
  0,                                      ! Sky Clearness
  0,                                      ! Rain Indicator
  0,                                      ! Snow Indicator
  21,                                     ! Day of Month
  7,                                      ! Month
  SummerDesignDay,                        ! Day Type
  0,                                      ! Daylight Saving Time Indicator
  Wetbulb,                                ! Humidity Indicating Type
  ,                                       ! Humidity Indicating Day Schedule Name
  DefaultMultipliers,                     ! Dry-Bulb Temperature Range Modifier Type
  ,                                       ! Dry-Bulb Temperature Range Modifier Schedule Name
  ASHRAETau,                              ! Solar Model Indicator
  ,                                       ! Beam Solar Day Schedule Name
  ,                                       ! Diffuse Solar Day Schedule Name
  0.527,                                  ! ASHRAE Taub {dimensionless}
  1.901;                                  ! ASHRAE Taud {dimensionless}

OS:ComponentData,
  {4013e68d-1b7f-4cef-9a45-7826ea204e17}, ! Handle
  Component Data 1,                       ! Name
  {605f009c-7b0c-48b3-8dcc-cb0a01694102}, ! UUID
  {d0bb4855-b15f-4940-94ae-f94ff8c84f2a}, ! Version UUID
  1366306943,                             ! Creation Timestamp
  1366306943,                             ! Version Timestamp
  {faa22054-21e1-4b1d-b5af-03ec75c59bfa}; ! Name of Object 1

