
OS:Version,
  {f4e38000-52cb-4949-90ab-6afb5e2eaa8f}, ! Handle
  0.9.3;                                  ! Version Identifier

OS:SizingPeriod:DesignDay,
  {de4e31c9-5539-4abd-85f3-46cecd147307}, ! Handle
  Yakutat Ann Clg 1% Condns WB=>MDB,      ! Name
  16.3,                                   ! Maximum Dry-Bulb Temperature {C}
  5.8,                                    ! Daily Dry-Bulb Temperature Range {deltaC}
  14,                                     ! Humidity Indicating Conditions at Maximum Dry-Bulb {BasedOnField A3}
  101217,                                 ! Barometric Pressure {Pa}
  3.4,                                    ! Wind Speed {m/s}
  320,                                    ! Wind Direction {deg}
  0,                                      ! Sky Clearness
  0,                                      ! Rain Indicator
  0,                                      ! Snow Indicator
  21,                                     ! Day of Month
  7,                                      ! Month
  SummerDesignDay,                        ! Day Type
  0,                                      ! Daylight Saving Time Indicator
  Wetbulb,                                ! Humidity Indicating Type
  ,                                       ! Humidity Indicating Day Schedule Name
  DefaultMultipliers,                     ! Dry-Bulb Temperature Range Modifier Type
  ,                                       ! Dry-Bulb Temperature Range Modifier Schedule Name
  ASHRAETau,                              ! Solar Model Indicator
  ,                                       ! Beam Solar Day Schedule Name
  ,                                       ! Diffuse Solar Day Schedule Name
  0.371,                                  ! ASHRAE Taub {dimensionless}
  2.194;                                  ! ASHRAE Taud {dimensionless}

OS:ComponentData,
  {92f246c6-5832-446c-9d54-abffd08c7088}, ! Handle
  Component Data 1,                       ! Name
  {650dbdc8-0423-41a6-82af-e953348143e8}, ! UUID
  {64021a18-1d51-420b-a20d-c61050a61d74}, ! Version UUID
  1366305623,                             ! Creation Timestamp
  1366305623,                             ! Version Timestamp
  {de4e31c9-5539-4abd-85f3-46cecd147307}; ! Name of Object 1

