
OS:Version,
  {497f74a8-8132-4d1c-b5f6-2cd29663b256}, ! Handle
  0.9.3;                                  ! Version Identifier

OS:SizingPeriod:DesignDay,
  {910e01bf-0327-44c5-8648-e41b8eb216c9}, ! Handle
  Walnut Ridge  Awos Ann Htg Wind 99.6% Condns WS=>MCDB, ! Name
  11.2,                                   ! Maximum Dry-Bulb Temperature {C}
  0,                                      ! Daily Dry-Bulb Temperature Range {deltaC}
  11.2,                                   ! Humidity Indicating Conditions at Maximum Dry-Bulb {BasedOnField A3}
  100332,                                 ! Barometric Pressure {Pa}
  11.6,                                   ! Wind Speed {m/s}
  320,                                    ! Wind Direction {deg}
  0,                                      ! Sky Clearness
  0,                                      ! Rain Indicator
  0,                                      ! Snow Indicator
  21,                                     ! Day of Month
  1,                                      ! Month
  WinterDesignDay,                        ! Day Type
  0,                                      ! Daylight Saving Time Indicator
  Wetbulb,                                ! Humidity Indicating Type
  ,                                       ! Humidity Indicating Day Schedule Name
  DefaultMultipliers,                     ! Dry-Bulb Temperature Range Modifier Type
  ,                                       ! Dry-Bulb Temperature Range Modifier Schedule Name
  ASHRAEClearSky;                         ! Solar Model Indicator

OS:ComponentData,
  {59a2fc5b-0f8f-4bb0-95a8-467f9f6faece}, ! Handle
  Component Data 1,                       ! Name
  {08fdf681-e93c-4be2-8077-cf264ac932fb}, ! UUID
  {0387c9a7-37da-4839-9495-98186dd61d44}, ! Version UUID
  1366306257,                             ! Creation Timestamp
  1366306257,                             ! Version Timestamp
  {910e01bf-0327-44c5-8648-e41b8eb216c9}; ! Name of Object 1

