
OS:Version,
  {659bc3ef-84b8-4389-a68f-8ab61c8bf176}, ! Handle
  0.9.3;                                  ! Version Identifier

OS:SizingPeriod:DesignDay,
  {db1d564e-4c6d-4c8f-b48d-005719667729}, ! Handle
  PROVIDENCE Ann Clg 2% Condns WB=>MDB,   ! Name
  26.3,                                   ! Maximum Dry-Bulb Temperature {C}
  9.6,                                    ! Daily Dry-Bulb Temperature Range {deltaC}
  22.9,                                   ! Humidity Indicating Conditions at Maximum Dry-Bulb {BasedOnField A3}
  101097,                                 ! Barometric Pressure {Pa}
  5.5,                                    ! Wind Speed {m/s}
  280,                                    ! Wind Direction {deg}
  0,                                      ! Sky Clearness
  0,                                      ! Rain Indicator
  0,                                      ! Snow Indicator
  21,                                     ! Day of Month
  7,                                      ! Month
  SummerDesignDay,                        ! Day Type
  0,                                      ! Daylight Saving Time Indicator
  Wetbulb,                                ! Humidity Indicating Type
  ,                                       ! Humidity Indicating Day Schedule Name
  DefaultMultipliers,                     ! Dry-Bulb Temperature Range Modifier Type
  ,                                       ! Dry-Bulb Temperature Range Modifier Schedule Name
  ASHRAETau,                              ! Solar Model Indicator
  ,                                       ! Beam Solar Day Schedule Name
  ,                                       ! Diffuse Solar Day Schedule Name
  0.507,                                  ! ASHRAE Taub {dimensionless}
  1.885;                                  ! ASHRAE Taud {dimensionless}

OS:ComponentData,
  {0657ad7f-4a17-459a-ab25-9de9e9d48a9d}, ! Handle
  Component Data 1,                       ! Name
  {fa920880-bb7d-4608-ba21-a8f53f87e341}, ! UUID
  {3f6e94ed-d40b-4637-b57a-6455be889725}, ! Version UUID
  1366310308,                             ! Creation Timestamp
  1366310308,                             ! Version Timestamp
  {db1d564e-4c6d-4c8f-b48d-005719667729}; ! Name of Object 1

