
OS:Version,
  {1a725f72-1038-4b36-ad89-48f0b0c65f25}, ! Handle
  0.9.3;                                  ! Version Identifier

OS:SizingPeriod:DesignDay,
  {105b4213-36cb-47b8-a668-4092fb569253}, ! Handle
  Savannah Ann Clg 2% Condns DB=>MWB,     ! Name
  33,                                     ! Maximum Dry-Bulb Temperature {C}
  10,                                     ! Daily Dry-Bulb Temperature Range {deltaC}
  24.6,                                   ! Humidity Indicating Conditions at Maximum Dry-Bulb {BasedOnField A3}
  101145,                                 ! Barometric Pressure {Pa}
  3.7,                                    ! Wind Speed {m/s}
  290,                                    ! Wind Direction {deg}
  0,                                      ! Sky Clearness
  0,                                      ! Rain Indicator
  0,                                      ! Snow Indicator
  21,                                     ! Day of Month
  7,                                      ! Month
  SummerDesignDay,                        ! Day Type
  0,                                      ! Daylight Saving Time Indicator
  Wetbulb,                                ! Humidity Indicating Type
  ,                                       ! Humidity Indicating Day Schedule Name
  DefaultMultipliers,                     ! Dry-Bulb Temperature Range Modifier Type
  ,                                       ! Dry-Bulb Temperature Range Modifier Schedule Name
  ASHRAETau,                              ! Solar Model Indicator
  ,                                       ! Beam Solar Day Schedule Name
  ,                                       ! Diffuse Solar Day Schedule Name
  0.558,                                  ! ASHRAE Taub {dimensionless}
  1.811;                                  ! ASHRAE Taud {dimensionless}

OS:ComponentData,
  {a5004aee-78eb-4f49-b077-2f3eb474c238}, ! Handle
  Component Data 1,                       ! Name
  {5185dd2e-bc4b-4f12-a95b-66c263b7be3e}, ! UUID
  {2477011b-504b-4e08-ab4c-6bbff81354d9}, ! Version UUID
  1366307052,                             ! Creation Timestamp
  1366307052,                             ! Version Timestamp
  {105b4213-36cb-47b8-a668-4092fb569253}; ! Name of Object 1

