
OS:Version,
  {e0c8d093-6b98-45be-9746-482a8d2cbd72}, ! Handle
  0.9.3;                                  ! Version Identifier

OS:SizingPeriod:DesignDay,
  {8257fe5f-6333-4244-9332-e19ce66da74b}, ! Handle
  Tucson Ann Clg 2% Condns Enth=>MDB,     ! Name
  30.7,                                   ! Maximum Dry-Bulb Temperature {C}
  13.8,                                   ! Daily Dry-Bulb Temperature Range {deltaC}
  66600,                                  ! Humidity Indicating Conditions at Maximum Dry-Bulb {BasedOnField A3}
  92310,                                  ! Barometric Pressure {Pa}
  5,                                      ! Wind Speed {m/s}
  300,                                    ! Wind Direction {deg}
  0,                                      ! Sky Clearness
  0,                                      ! Rain Indicator
  0,                                      ! Snow Indicator
  21,                                     ! Day of Month
  7,                                      ! Month
  SummerDesignDay,                        ! Day Type
  0,                                      ! Daylight Saving Time Indicator
  Enthalpy,                               ! Humidity Indicating Type
  ,                                       ! Humidity Indicating Day Schedule Name
  DefaultMultipliers,                     ! Dry-Bulb Temperature Range Modifier Type
  ,                                       ! Dry-Bulb Temperature Range Modifier Schedule Name
  ASHRAETau,                              ! Solar Model Indicator
  ,                                       ! Beam Solar Day Schedule Name
  ,                                       ! Diffuse Solar Day Schedule Name
  0.555,                                  ! ASHRAE Taub {dimensionless}
  1.73;                                   ! ASHRAE Taud {dimensionless}

OS:ComponentData,
  {e4fe2760-f83d-4b63-981e-a8ee162907d8}, ! Handle
  Component Data 1,                       ! Name
  {8b585b4a-9834-44fe-90e6-719fa9219e20}, ! UUID
  {35e20216-c3ad-4432-9485-46a1111868b3}, ! Version UUID
  1366306322,                             ! Creation Timestamp
  1366306322,                             ! Version Timestamp
  {8257fe5f-6333-4244-9332-e19ce66da74b}; ! Name of Object 1

