
OS:Version,
  {358650b2-6794-4212-888e-4b4be5a08717}, ! Handle
  0.9.3;                                  ! Version Identifier

OS:SizingPeriod:DesignDay,
  {f4f10c73-f791-4c2c-a804-93896a27027a}, ! Handle
  Otis Angb Ann Clg 1% Condns DB=>MWB,    ! Name
  27.7,                                   ! Maximum Dry-Bulb Temperature {C}
  8.3,                                    ! Daily Dry-Bulb Temperature Range {deltaC}
  21.7,                                   ! Humidity Indicating Conditions at Maximum Dry-Bulb {BasedOnField A3}
  100845,                                 ! Barometric Pressure {Pa}
  4.8,                                    ! Wind Speed {m/s}
  230,                                    ! Wind Direction {deg}
  0,                                      ! Sky Clearness
  0,                                      ! Rain Indicator
  0,                                      ! Snow Indicator
  21,                                     ! Day of Month
  7,                                      ! Month
  SummerDesignDay,                        ! Day Type
  0,                                      ! Daylight Saving Time Indicator
  Wetbulb,                                ! Humidity Indicating Type
  ,                                       ! Humidity Indicating Day Schedule Name
  DefaultMultipliers,                     ! Dry-Bulb Temperature Range Modifier Type
  ,                                       ! Dry-Bulb Temperature Range Modifier Schedule Name
  ASHRAETau,                              ! Solar Model Indicator
  ,                                       ! Beam Solar Day Schedule Name
  ,                                       ! Diffuse Solar Day Schedule Name
  0.514,                                  ! ASHRAE Taub {dimensionless}
  1.868;                                  ! ASHRAE Taud {dimensionless}

OS:ComponentData,
  {248864d4-31db-4e7d-b3ec-58260ba5f0d6}, ! Handle
  Component Data 1,                       ! Name
  {16318b0a-1b73-4eef-a95f-7d84cb1f7e4b}, ! UUID
  {bf6df1c0-39cc-4d2a-bf0e-09fa23c09767}, ! Version UUID
  1366307814,                             ! Creation Timestamp
  1366307814,                             ! Version Timestamp
  {f4f10c73-f791-4c2c-a804-93896a27027a}; ! Name of Object 1

