
OS:Version,
  {228dba79-76a2-4718-acee-792e405db35a}, ! Handle
  0.9.3;                                  ! Version Identifier

OS:SizingPeriod:DesignDay,
  {a8bd572e-3aa3-487b-a2f6-981c6c231a12}, ! Handle
  Waco Ann Htg 99.6% Condns DB,           ! Name
  -5.1,                                   ! Maximum Dry-Bulb Temperature {C}
  0,                                      ! Daily Dry-Bulb Temperature Range {deltaC}
  -5.1,                                   ! Humidity Indicating Conditions at Maximum Dry-Bulb {BasedOnField A3}
  99477,                                  ! Barometric Pressure {Pa}
  5.1,                                    ! Wind Speed {m/s}
  0,                                      ! Wind Direction {deg}
  0,                                      ! Sky Clearness
  0,                                      ! Rain Indicator
  0,                                      ! Snow Indicator
  21,                                     ! Day of Month
  1,                                      ! Month
  WinterDesignDay,                        ! Day Type
  0,                                      ! Daylight Saving Time Indicator
  Wetbulb,                                ! Humidity Indicating Type
  ,                                       ! Humidity Indicating Day Schedule Name
  DefaultMultipliers,                     ! Dry-Bulb Temperature Range Modifier Type
  ,                                       ! Dry-Bulb Temperature Range Modifier Schedule Name
  ASHRAEClearSky;                         ! Solar Model Indicator

OS:ComponentData,
  {c677bec3-0b7c-43d1-b53f-a78834c99956}, ! Handle
  Component Data 1,                       ! Name
  {15bf1f42-81c3-452c-93d4-5c9d07d657b5}, ! UUID
  {cfc2b51e-ea93-438d-a7df-e9d8138ce26f}, ! Version UUID
  1366310919,                             ! Creation Timestamp
  1366310919,                             ! Version Timestamp
  {a8bd572e-3aa3-487b-a2f6-981c6c231a12}; ! Name of Object 1

