
OS:Version,
  {7f808c7a-a4ae-45af-baa6-66c31b8752de}, ! Handle
  0.9.3;                                  ! Version Identifier

OS:SizingPeriod:DesignDay,
  {498a2eca-eceb-4e8c-9f6f-17942161cf70}, ! Handle
  Missoula Ann Htg 99.6% Condns DB,       ! Name
  -21.1,                                  ! Maximum Dry-Bulb Temperature {C}
  0,                                      ! Daily Dry-Bulb Temperature Range {deltaC}
  -21.1,                                  ! Humidity Indicating Conditions at Maximum Dry-Bulb {BasedOnField A3}
  90180,                                  ! Barometric Pressure {Pa}
  1.6,                                    ! Wind Speed {m/s}
  90,                                     ! Wind Direction {deg}
  0,                                      ! Sky Clearness
  0,                                      ! Rain Indicator
  0,                                      ! Snow Indicator
  21,                                     ! Day of Month
  12,                                     ! Month
  WinterDesignDay,                        ! Day Type
  0,                                      ! Daylight Saving Time Indicator
  Wetbulb,                                ! Humidity Indicating Type
  ,                                       ! Humidity Indicating Day Schedule Name
  DefaultMultipliers,                     ! Dry-Bulb Temperature Range Modifier Type
  ,                                       ! Dry-Bulb Temperature Range Modifier Schedule Name
  ASHRAEClearSky;                         ! Solar Model Indicator

OS:ComponentData,
  {a197e9f9-a43a-4232-8abf-0bc1c717eeee}, ! Handle
  Component Data 1,                       ! Name
  {916670c0-18b9-4af0-a194-bbe14d62d6d5}, ! UUID
  {24e1a2d5-287d-4be7-bb39-5478ebce0288}, ! Version UUID
  1366308844,                             ! Creation Timestamp
  1366308844,                             ! Version Timestamp
  {498a2eca-eceb-4e8c-9f6f-17942161cf70}; ! Name of Object 1

