
OS:Version,
  {da4ad6bb-3146-451c-97e7-3bd5e4796dbc}, ! Handle
  0.9.3;                                  ! Version Identifier

OS:SizingPeriod:DesignDay,
  {191782e0-0273-460e-aa58-6d9aaf14b496}, ! Handle
  Saint Mary S  Awos Ann Htg Wind 99.6% Condns WS=>MCDB, ! Name
  -6.4,                                   ! Maximum Dry-Bulb Temperature {C}
  0,                                      ! Daily Dry-Bulb Temperature Range {deltaC}
  -6.4,                                   ! Humidity Indicating Conditions at Maximum Dry-Bulb {BasedOnField A3}
  100189,                                 ! Barometric Pressure {Pa}
  16.3,                                   ! Wind Speed {m/s}
  30,                                     ! Wind Direction {deg}
  0,                                      ! Sky Clearness
  0,                                      ! Rain Indicator
  0,                                      ! Snow Indicator
  21,                                     ! Day of Month
  1,                                      ! Month
  WinterDesignDay,                        ! Day Type
  0,                                      ! Daylight Saving Time Indicator
  Wetbulb,                                ! Humidity Indicating Type
  ,                                       ! Humidity Indicating Day Schedule Name
  DefaultMultipliers,                     ! Dry-Bulb Temperature Range Modifier Type
  ,                                       ! Dry-Bulb Temperature Range Modifier Schedule Name
  ASHRAEClearSky;                         ! Solar Model Indicator

OS:ComponentData,
  {97e2308d-c2e2-41a2-bc97-df2b5716d823}, ! Handle
  Component Data 1,                       ! Name
  {74495d8c-46ee-4d8a-b65b-704d3086b9ae}, ! UUID
  {5232d449-1b18-42f0-b6f9-5ea95140881f}, ! Version UUID
  1366305512,                             ! Creation Timestamp
  1366305512,                             ! Version Timestamp
  {191782e0-0273-460e-aa58-6d9aaf14b496}; ! Name of Object 1

