
OS:Version,
  {c4aee192-ed49-4a24-a678-61be0ceac705}, ! Handle
  0.9.3;                                  ! Version Identifier

OS:SizingPeriod:DesignDay,
  {5c936442-924e-425a-8dd5-6ff6b57ffed1}, ! Handle
  Ponca City Municipal Ap  Sgp Ann Clg 2% Condns DB=>MWB, ! Name
  35.1,                                   ! Maximum Dry-Bulb Temperature {C}
  11.4,                                   ! Daily Dry-Bulb Temperature Range {deltaC}
  23.9,                                   ! Humidity Indicating Conditions at Maximum Dry-Bulb {BasedOnField A3}
  97563,                                  ! Barometric Pressure {Pa}
  5.2,                                    ! Wind Speed {m/s}
  170,                                    ! Wind Direction {deg}
  0,                                      ! Sky Clearness
  0,                                      ! Rain Indicator
  0,                                      ! Snow Indicator
  21,                                     ! Day of Month
  7,                                      ! Month
  SummerDesignDay,                        ! Day Type
  0,                                      ! Daylight Saving Time Indicator
  Wetbulb,                                ! Humidity Indicating Type
  ,                                       ! Humidity Indicating Day Schedule Name
  DefaultMultipliers,                     ! Dry-Bulb Temperature Range Modifier Type
  ,                                       ! Dry-Bulb Temperature Range Modifier Schedule Name
  ASHRAETau,                              ! Solar Model Indicator
  ,                                       ! Beam Solar Day Schedule Name
  ,                                       ! Diffuse Solar Day Schedule Name
  0.432,                                  ! ASHRAE Taub {dimensionless}
  2.176;                                  ! ASHRAE Taud {dimensionless}

OS:ComponentData,
  {c07745de-e459-4e86-aa55-26ba02fec6af}, ! Handle
  Component Data 1,                       ! Name
  {df98b06b-aa39-4cf5-88b5-8863a7f7b1ab}, ! UUID
  {4c92caec-bdb7-4153-bdc7-f2ca3e440240}, ! Version UUID
  1366309936,                             ! Creation Timestamp
  1366309936,                             ! Version Timestamp
  {5c936442-924e-425a-8dd5-6ff6b57ffed1}; ! Name of Object 1

