
OS:Version,
  {d97966e6-2c7f-4ae5-9f63-13d1685504a7}, ! Handle
  0.9.3;                                  ! Version Identifier

OS:SizingPeriod:DesignDay,
  {932abc29-bb10-446b-8b6f-6e3252ae7149}, ! Handle
  Palmer Municipal Ann Hum_n 99.6% Condns DP=>MCDB, ! Name
  -24.2,                                  ! Maximum Dry-Bulb Temperature {C}
  0,                                      ! Daily Dry-Bulb Temperature Range {deltaC}
  -29.8,                                  ! Humidity Indicating Conditions at Maximum Dry-Bulb {BasedOnField A3}
  100475,                                 ! Barometric Pressure {Pa}
  0.6,                                    ! Wind Speed {m/s}
  0,                                      ! Wind Direction {deg}
  0,                                      ! Sky Clearness
  0,                                      ! Rain Indicator
  0,                                      ! Snow Indicator
  21,                                     ! Day of Month
  1,                                      ! Month
  WinterDesignDay,                        ! Day Type
  0,                                      ! Daylight Saving Time Indicator
  Dewpoint,                               ! Humidity Indicating Type
  ,                                       ! Humidity Indicating Day Schedule Name
  DefaultMultipliers,                     ! Dry-Bulb Temperature Range Modifier Type
  ,                                       ! Dry-Bulb Temperature Range Modifier Schedule Name
  ASHRAEClearSky;                         ! Solar Model Indicator

OS:ComponentData,
  {85f25c0b-d4f7-4a6a-9320-c9f378ee4471}, ! Handle
  Component Data 1,                       ! Name
  {b6c2a146-09ed-4111-94c1-8e93ca151bb2}, ! UUID
  {6d320eca-9a7a-46d9-b416-b30a9ccc85fb}, ! Version UUID
  1366305474,                             ! Creation Timestamp
  1366305474,                             ! Version Timestamp
  {932abc29-bb10-446b-8b6f-6e3252ae7149}; ! Name of Object 1

