
OS:Version,
  {f9a6bfca-2410-4680-8f58-7e32ed8baaa6}, ! Handle
  0.9.3;                                  ! Version Identifier

OS:SizingPeriod:DesignDay,
  {1e6d9117-7b82-4176-a0fb-969751c59d62}, ! Handle
  San Diego North Island Nas Ann Htg Wind 99.6% Condns WS=>MCDB, ! Name
  15,                                     ! Maximum Dry-Bulb Temperature {C}
  0,                                      ! Daily Dry-Bulb Temperature Range {deltaC}
  15,                                     ! Humidity Indicating Conditions at Maximum Dry-Bulb {BasedOnField A3}
  101145,                                 ! Barometric Pressure {Pa}
  11.6,                                   ! Wind Speed {m/s}
  90,                                     ! Wind Direction {deg}
  0,                                      ! Sky Clearness
  0,                                      ! Rain Indicator
  0,                                      ! Snow Indicator
  21,                                     ! Day of Month
  12,                                     ! Month
  WinterDesignDay,                        ! Day Type
  0,                                      ! Daylight Saving Time Indicator
  Wetbulb,                                ! Humidity Indicating Type
  ,                                       ! Humidity Indicating Day Schedule Name
  DefaultMultipliers,                     ! Dry-Bulb Temperature Range Modifier Type
  ,                                       ! Dry-Bulb Temperature Range Modifier Schedule Name
  ASHRAEClearSky;                         ! Solar Model Indicator

OS:ComponentData,
  {ab5d7cdc-10d8-49e3-a0a0-8bf300cc0114}, ! Handle
  Component Data 1,                       ! Name
  {c0406508-04e9-44fd-9d7d-9632140c84ed}, ! UUID
  {49a0de27-bcc4-4076-a9a1-47f61c3d8400}, ! Version UUID
  1366306582,                             ! Creation Timestamp
  1366306582,                             ! Version Timestamp
  {1e6d9117-7b82-4176-a0fb-969751c59d62}; ! Name of Object 1

