
OS:Version,
  {0eb6404b-e288-4f20-923f-18eb429b0fc0}, ! Handle
  0.9.3;                                  ! Version Identifier

OS:SizingPeriod:DesignDay,
  {38edeb38-f749-4361-9090-e5d0bfbfc86b}, ! Handle
  MILWAUKEE Ann Clg 1% Condns DB=>MWB,    ! Name
  30.4,                                   ! Maximum Dry-Bulb Temperature {C}
  8.7,                                    ! Daily Dry-Bulb Temperature Range {deltaC}
  22.6,                                   ! Humidity Indicating Conditions at Maximum Dry-Bulb {BasedOnField A3}
  98816,                                  ! Barometric Pressure {Pa}
  6.4,                                    ! Wind Speed {m/s}
  240,                                    ! Wind Direction {deg}
  0,                                      ! Sky Clearness
  0,                                      ! Rain Indicator
  0,                                      ! Snow Indicator
  21,                                     ! Day of Month
  7,                                      ! Month
  SummerDesignDay,                        ! Day Type
  0,                                      ! Daylight Saving Time Indicator
  Wetbulb,                                ! Humidity Indicating Type
  ,                                       ! Humidity Indicating Day Schedule Name
  DefaultMultipliers,                     ! Dry-Bulb Temperature Range Modifier Type
  ,                                       ! Dry-Bulb Temperature Range Modifier Schedule Name
  ASHRAETau,                              ! Solar Model Indicator
  ,                                       ! Beam Solar Day Schedule Name
  ,                                       ! Diffuse Solar Day Schedule Name
  0.452,                                  ! ASHRAE Taub {dimensionless}
  2.061;                                  ! ASHRAE Taud {dimensionless}

