
OS:Version,
  {092f8ced-5761-47c1-9523-811d7b5b0417}, ! Handle
  0.9.3;                                  ! Version Identifier

OS:SizingPeriod:DesignDay,
  {f63af193-92ee-4733-b1b9-214b53d53670}, ! Handle
  TAMPA Ann Htg 99% Condns DB,            ! Name
  5.8,                                    ! Maximum Dry-Bulb Temperature {C}
  0,                                      ! Daily Dry-Bulb Temperature Range {deltaC}
  5.8,                                    ! Humidity Indicating Conditions at Maximum Dry-Bulb {BasedOnField A3}
  101289,                                 ! Barometric Pressure {Pa}
  2.8,                                    ! Wind Speed {m/s}
  10,                                     ! Wind Direction {deg}
  0,                                      ! Sky Clearness
  0,                                      ! Rain Indicator
  0,                                      ! Snow Indicator
  21,                                     ! Day of Month
  1,                                      ! Month
  WinterDesignDay,                        ! Day Type
  0,                                      ! Daylight Saving Time Indicator
  Wetbulb,                                ! Humidity Indicating Type
  ,                                       ! Humidity Indicating Day Schedule Name
  DefaultMultipliers,                     ! Dry-Bulb Temperature Range Modifier Type
  ,                                       ! Dry-Bulb Temperature Range Modifier Schedule Name
  ASHRAEClearSky;                         ! Solar Model Indicator

OS:ComponentData,
  {dfcb18b0-71a6-4598-af7a-a13f680aa99a}, ! Handle
  Component Data 1,                       ! Name
  {75ca67d9-2377-41e1-8a99-4f2ffa0f5df8}, ! UUID
  {00b68a3f-b41d-4cda-a849-95be89b730af}, ! Version UUID
  1366306929,                             ! Creation Timestamp
  1366306929,                             ! Version Timestamp
  {f63af193-92ee-4733-b1b9-214b53d53670}; ! Name of Object 1

