
OS:Version,
  {ba8bb3b0-07c4-42ca-8c98-ce8126b939c6}, ! Handle
  0.9.3;                                  ! Version Identifier

OS:SizingPeriod:DesignDay,
  {ec578e67-dcf0-47a0-a251-fe45b7db4291}, ! Handle
  Portland International Ap Ann Clg 1% Condns DP=>MDB, ! Name
  22.9,                                   ! Maximum Dry-Bulb Temperature {C}
  12.2,                                   ! Daily Dry-Bulb Temperature Range {deltaC}
  16.3,                                   ! Humidity Indicating Conditions at Maximum Dry-Bulb {BasedOnField A3}
  101253,                                 ! Barometric Pressure {Pa}
  4.7,                                    ! Wind Speed {m/s}
  310,                                    ! Wind Direction {deg}
  0,                                      ! Sky Clearness
  0,                                      ! Rain Indicator
  0,                                      ! Snow Indicator
  21,                                     ! Day of Month
  8,                                      ! Month
  SummerDesignDay,                        ! Day Type
  0,                                      ! Daylight Saving Time Indicator
  Dewpoint,                               ! Humidity Indicating Type
  ,                                       ! Humidity Indicating Day Schedule Name
  DefaultMultipliers,                     ! Dry-Bulb Temperature Range Modifier Type
  ,                                       ! Dry-Bulb Temperature Range Modifier Schedule Name
  ASHRAETau,                              ! Solar Model Indicator
  ,                                       ! Beam Solar Day Schedule Name
  ,                                       ! Diffuse Solar Day Schedule Name
  0.358,                                  ! ASHRAE Taub {dimensionless}
  2.549;                                  ! ASHRAE Taud {dimensionless}

OS:ComponentData,
  {a58c2d75-0a6b-44a9-a001-d43c16e05522}, ! Handle
  Component Data 1,                       ! Name
  {f58994c1-f81e-49f1-82ae-6fca103254dc}, ! UUID
  {94633020-9155-4978-8983-de289606b753}, ! Version UUID
  1366310088,                             ! Creation Timestamp
  1366310088,                             ! Version Timestamp
  {ec578e67-dcf0-47a0-a251-fe45b7db4291}; ! Name of Object 1

