
OS:Version,
  {c97295d4-4477-41fb-aabb-d131c5ba190f}, ! Handle
  0.9.3;                                  ! Version Identifier

OS:SizingPeriod:DesignDay,
  {328b6f31-90ab-496c-afc6-3671a8ba1a43}, ! Handle
  Salem Ann Clg 2% Condns DB=>MWB,        ! Name
  29,                                     ! Maximum Dry-Bulb Temperature {C}
  15.4,                                   ! Daily Dry-Bulb Temperature Range {deltaC}
  18.1,                                   ! Humidity Indicating Conditions at Maximum Dry-Bulb {BasedOnField A3}
  100594,                                 ! Barometric Pressure {Pa}
  4.3,                                    ! Wind Speed {m/s}
  0,                                      ! Wind Direction {deg}
  0,                                      ! Sky Clearness
  0,                                      ! Rain Indicator
  0,                                      ! Snow Indicator
  21,                                     ! Day of Month
  8,                                      ! Month
  SummerDesignDay,                        ! Day Type
  0,                                      ! Daylight Saving Time Indicator
  Wetbulb,                                ! Humidity Indicating Type
  ,                                       ! Humidity Indicating Day Schedule Name
  DefaultMultipliers,                     ! Dry-Bulb Temperature Range Modifier Type
  ,                                       ! Dry-Bulb Temperature Range Modifier Schedule Name
  ASHRAETau,                              ! Solar Model Indicator
  ,                                       ! Beam Solar Day Schedule Name
  ,                                       ! Diffuse Solar Day Schedule Name
  0.355,                                  ! ASHRAE Taub {dimensionless}
  2.578;                                  ! ASHRAE Taud {dimensionless}

OS:ComponentData,
  {1ea068b5-a9fa-4e3a-b0c2-8f5c0aa547ac}, ! Handle
  Component Data 1,                       ! Name
  {f242c896-4ab6-4ee8-ad9e-cccf4d0e3456}, ! UUID
  {913b2a79-7ed1-4afd-a822-dff9f4072439}, ! Version UUID
  1366310108,                             ! Creation Timestamp
  1366310108,                             ! Version Timestamp
  {328b6f31-90ab-496c-afc6-3671a8ba1a43}; ! Name of Object 1

