
OS:Version,
  {e4e442fd-d77b-4a0e-a1da-adc1b2993303}, ! Handle
  0.9.3;                                  ! Version Identifier

OS:SizingPeriod:DesignDay,
  {92c495cf-cad9-43c2-802a-e7b034e954c1}, ! Handle
  PHOENIX Ann Htg 99.6% Condns DB,        ! Name
  3.7,                                    ! Maximum Dry-Bulb Temperature {C}
  0,                                      ! Daily Dry-Bulb Temperature Range {deltaC}
  3.7,                                    ! Humidity Indicating Conditions at Maximum Dry-Bulb {BasedOnField A3}
  97318,                                  ! Barometric Pressure {Pa}
  1.7,                                    ! Wind Speed {m/s}
  100,                                    ! Wind Direction {deg}
  0,                                      ! Sky Clearness
  0,                                      ! Rain Indicator
  0,                                      ! Snow Indicator
  21,                                     ! Day of Month
  12,                                     ! Month
  WinterDesignDay,                        ! Day Type
  0,                                      ! Daylight Saving Time Indicator
  Wetbulb,                                ! Humidity Indicating Type
  ,                                       ! Humidity Indicating Day Schedule Name
  DefaultMultipliers,                     ! Dry-Bulb Temperature Range Modifier Type
  ,                                       ! Dry-Bulb Temperature Range Modifier Schedule Name
  ASHRAEClearSky;                         ! Solar Model Indicator

OS:ComponentData,
  {aa92e19f-9c45-4ced-92a1-868c1bcac535}, ! Handle
  Component Data 1,                       ! Name
  {9ab0fc57-77a1-49f7-8ee5-cf5ea5fa40a9}, ! UUID
  {73842519-00c2-4b70-ae28-9bd40f58c681}, ! Version UUID
  1366306297,                             ! Creation Timestamp
  1366306297,                             ! Version Timestamp
  {92c495cf-cad9-43c2-802a-e7b034e954c1}; ! Name of Object 1

