
OS:Version,
  {9a810eed-1670-4bd7-b571-7095794b8896}, ! Handle
  0.9.3;                                  ! Version Identifier

OS:SizingPeriod:DesignDay,
  {be709c36-509b-469e-b62f-39a9a44e424d}, ! Handle
  Tallahassee Regional Ap  Isis Ann Clg .4% Condns DP=>MDB, ! Name
  28.2,                                   ! Maximum Dry-Bulb Temperature {C}
  10.6,                                   ! Daily Dry-Bulb Temperature Range {deltaC}
  25.2,                                   ! Humidity Indicating Conditions at Maximum Dry-Bulb {BasedOnField A3}
  101073,                                 ! Barometric Pressure {Pa}
  3.4,                                    ! Wind Speed {m/s}
  10,                                     ! Wind Direction {deg}
  0,                                      ! Sky Clearness
  0,                                      ! Rain Indicator
  0,                                      ! Snow Indicator
  21,                                     ! Day of Month
  7,                                      ! Month
  SummerDesignDay,                        ! Day Type
  0,                                      ! Daylight Saving Time Indicator
  Dewpoint,                               ! Humidity Indicating Type
  ,                                       ! Humidity Indicating Day Schedule Name
  DefaultMultipliers,                     ! Dry-Bulb Temperature Range Modifier Type
  ,                                       ! Dry-Bulb Temperature Range Modifier Schedule Name
  ASHRAETau,                              ! Solar Model Indicator
  ,                                       ! Beam Solar Day Schedule Name
  ,                                       ! Diffuse Solar Day Schedule Name
  0.537,                                  ! ASHRAE Taub {dimensionless}
  1.879;                                  ! ASHRAE Taud {dimensionless}

OS:ComponentData,
  {9bd8fa9c-7d7c-498f-99ab-3d0b1f2f7bce}, ! Handle
  Component Data 1,                       ! Name
  {2962eba8-353d-4602-86d8-6e913e57c98a}, ! UUID
  {4267d45c-aca1-4898-952b-acbfac8abe4f}, ! Version UUID
  1366306927,                             ! Creation Timestamp
  1366306927,                             ! Version Timestamp
  {be709c36-509b-469e-b62f-39a9a44e424d}; ! Name of Object 1

