
OS:Version,
  {120cfa2d-b74a-448e-a84e-7c6da3614d7d}, ! Handle
  0.9.3;                                  ! Version Identifier

OS:SizingPeriod:DesignDay,
  {4739e524-8cdd-40fb-af64-a73e58320af1}, ! Handle
  Northway Airport Ann Htg 99.6% Condns DB, ! Name
  -46.1,                                  ! Maximum Dry-Bulb Temperature {C}
  0,                                      ! Daily Dry-Bulb Temperature Range {deltaC}
  -46.1,                                  ! Humidity Indicating Conditions at Maximum Dry-Bulb {BasedOnField A3}
  95209,                                  ! Barometric Pressure {Pa}
  0.1,                                    ! Wind Speed {m/s}
  180,                                    ! Wind Direction {deg}
  0,                                      ! Sky Clearness
  0,                                      ! Rain Indicator
  0,                                      ! Snow Indicator
  21,                                     ! Day of Month
  1,                                      ! Month
  WinterDesignDay,                        ! Day Type
  0,                                      ! Daylight Saving Time Indicator
  Wetbulb,                                ! Humidity Indicating Type
  ,                                       ! Humidity Indicating Day Schedule Name
  DefaultMultipliers,                     ! Dry-Bulb Temperature Range Modifier Type
  ,                                       ! Dry-Bulb Temperature Range Modifier Schedule Name
  ASHRAEClearSky;                         ! Solar Model Indicator

OS:ComponentData,
  {cc824e37-3b93-42ab-9846-f52f50d4a5ca}, ! Handle
  Component Data 1,                       ! Name
  {6ee917cc-b46b-4127-b8bb-ec48cfb7b374}, ! UUID
  {508e8b74-35a3-429b-9107-34de30d6343e}, ! Version UUID
  1366305467,                             ! Creation Timestamp
  1366305467,                             ! Version Timestamp
  {4739e524-8cdd-40fb-af64-a73e58320af1}; ! Name of Object 1

