
OS:Version,
  {bb99ba1f-689f-4a31-ab78-7c4f38e6f2cf}, ! Handle
  0.9.3;                                  ! Version Identifier

OS:SizingPeriod:DesignDay,
  {7b0be380-e115-43a5-8e69-8064736b074a}, ! Handle
  Traverse City Ann Clg 2% Condns DP=>MDB, ! Name
  24.4,                                   ! Maximum Dry-Bulb Temperature {C}
  11.8,                                   ! Daily Dry-Bulb Temperature Range {deltaC}
  20,                                     ! Humidity Indicating Conditions at Maximum Dry-Bulb {BasedOnField A3}
  99063,                                  ! Barometric Pressure {Pa}
  5.1,                                    ! Wind Speed {m/s}
  230,                                    ! Wind Direction {deg}
  0,                                      ! Sky Clearness
  0,                                      ! Rain Indicator
  0,                                      ! Snow Indicator
  21,                                     ! Day of Month
  7,                                      ! Month
  SummerDesignDay,                        ! Day Type
  0,                                      ! Daylight Saving Time Indicator
  Dewpoint,                               ! Humidity Indicating Type
  ,                                       ! Humidity Indicating Day Schedule Name
  DefaultMultipliers,                     ! Dry-Bulb Temperature Range Modifier Type
  ,                                       ! Dry-Bulb Temperature Range Modifier Schedule Name
  ASHRAETau,                              ! Solar Model Indicator
  ,                                       ! Beam Solar Day Schedule Name
  ,                                       ! Diffuse Solar Day Schedule Name
  0.422,                                  ! ASHRAE Taub {dimensionless}
  2.177;                                  ! ASHRAE Taud {dimensionless}

OS:ComponentData,
  {78fd5d1c-e286-40d7-a72d-4e970212c8a2}, ! Handle
  Component Data 1,                       ! Name
  {0c94abfd-0ccc-4fd3-bc44-a90fe7bddd3e}, ! UUID
  {a1491ed9-18ae-4b14-a5b4-679a4b2ab696}, ! Version UUID
  1366308122,                             ! Creation Timestamp
  1366308122,                             ! Version Timestamp
  {7b0be380-e115-43a5-8e69-8064736b074a}; ! Name of Object 1

