
OS:Version,
  {586c6386-23bf-4be9-8b4b-b09ed7430f09}, ! Handle
  0.9.3;                                  ! Version Identifier

OS:SizingPeriod:DesignDay,
  {00aa2db1-80dd-48cb-98e1-9ff2539e216c}, ! Handle
  Northern Aroostook Ann Htg 99% Condns DB, ! Name
  -22.9,                                  ! Maximum Dry-Bulb Temperature {C}
  0,                                      ! Daily Dry-Bulb Temperature Range {deltaC}
  -22.9,                                  ! Humidity Indicating Conditions at Maximum Dry-Bulb {BasedOnField A3}
  97668,                                  ! Barometric Pressure {Pa}
  5.1,                                    ! Wind Speed {m/s}
  300,                                    ! Wind Direction {deg}
  0,                                      ! Sky Clearness
  0,                                      ! Rain Indicator
  0,                                      ! Snow Indicator
  21,                                     ! Day of Month
  1,                                      ! Month
  WinterDesignDay,                        ! Day Type
  0,                                      ! Daylight Saving Time Indicator
  Wetbulb,                                ! Humidity Indicating Type
  ,                                       ! Humidity Indicating Day Schedule Name
  DefaultMultipliers,                     ! Dry-Bulb Temperature Range Modifier Type
  ,                                       ! Dry-Bulb Temperature Range Modifier Schedule Name
  ASHRAEClearSky;                         ! Solar Model Indicator

OS:ComponentData,
  {54cf70e7-ac0b-49b0-8842-9bd6ed975c68}, ! Handle
  Component Data 1,                       ! Name
  {aa2c8f67-e887-48ec-8cf8-79d16c68fc62}, ! UUID
  {1203a6ac-277f-4054-b721-10891a3abdd2}, ! Version UUID
  1366307897,                             ! Creation Timestamp
  1366307897,                             ! Version Timestamp
  {00aa2db1-80dd-48cb-98e1-9ff2539e216c}; ! Name of Object 1

