
OS:Version,
  {0f314d2e-7fb8-4fc2-a66a-2c86a3b9632b}, ! Handle
  0.9.3;                                  ! Version Identifier

OS:SizingPeriod:DesignDay,
  {9107779e-dd50-46cf-83a9-6340d2a2499f}, ! Handle
  RICHMOND Ann Clg .4% Condns Enth=>MDB,  ! Name
  32,                                     ! Maximum Dry-Bulb Temperature {C}
  10.4,                                   ! Daily Dry-Bulb Temperature Range {deltaC}
  80200,                                  ! Humidity Indicating Conditions at Maximum Dry-Bulb {BasedOnField A3}
  100726,                                 ! Barometric Pressure {Pa}
  4.5,                                    ! Wind Speed {m/s}
  230,                                    ! Wind Direction {deg}
  0,                                      ! Sky Clearness
  0,                                      ! Rain Indicator
  0,                                      ! Snow Indicator
  21,                                     ! Day of Month
  7,                                      ! Month
  SummerDesignDay,                        ! Day Type
  0,                                      ! Daylight Saving Time Indicator
  Enthalpy,                               ! Humidity Indicating Type
  ,                                       ! Humidity Indicating Day Schedule Name
  DefaultMultipliers,                     ! Dry-Bulb Temperature Range Modifier Type
  ,                                       ! Dry-Bulb Temperature Range Modifier Schedule Name
  ASHRAETau,                              ! Solar Model Indicator
  ,                                       ! Beam Solar Day Schedule Name
  ,                                       ! Diffuse Solar Day Schedule Name
  0.567,                                  ! ASHRAE Taub {dimensionless}
  1.742;                                  ! ASHRAE Taud {dimensionless}

OS:ComponentData,
  {2fd4268a-ade0-4f6a-bde9-2f038a78aa94}, ! Handle
  Component Data 1,                       ! Name
  {4fcf24e7-922f-47f0-9981-7943387b1a07}, ! UUID
  {2fc37e79-0c3d-406e-a098-18a56c592980}, ! Version UUID
  1366311165,                             ! Creation Timestamp
  1366311165,                             ! Version Timestamp
  {9107779e-dd50-46cf-83a9-6340d2a2499f}; ! Name of Object 1

