
OS:Version,
  {a046434a-2e94-49d3-8f57-76963d350a7c}, ! Handle
  0.9.3;                                  ! Version Identifier

OS:SizingPeriod:DesignDay,
  {ff1bd2d3-3864-40ce-a389-12f3b8773a63}, ! Handle
  Topeka Ann Clg .4% Condns Enth=>MDB,    ! Name
  32.8,                                   ! Maximum Dry-Bulb Temperature {C}
  11.3,                                   ! Daily Dry-Bulb Temperature Range {deltaC}
  82300,                                  ! Humidity Indicating Conditions at Maximum Dry-Bulb {BasedOnField A3}
  98123,                                  ! Barometric Pressure {Pa}
  4.9,                                    ! Wind Speed {m/s}
  200,                                    ! Wind Direction {deg}
  0,                                      ! Sky Clearness
  0,                                      ! Rain Indicator
  0,                                      ! Snow Indicator
  21,                                     ! Day of Month
  7,                                      ! Month
  SummerDesignDay,                        ! Day Type
  0,                                      ! Daylight Saving Time Indicator
  Enthalpy,                               ! Humidity Indicating Type
  ,                                       ! Humidity Indicating Day Schedule Name
  DefaultMultipliers,                     ! Dry-Bulb Temperature Range Modifier Type
  ,                                       ! Dry-Bulb Temperature Range Modifier Schedule Name
  ASHRAETau,                              ! Solar Model Indicator
  ,                                       ! Beam Solar Day Schedule Name
  ,                                       ! Diffuse Solar Day Schedule Name
  0.434,                                  ! ASHRAE Taub {dimensionless}
  2.183;                                  ! ASHRAE Taud {dimensionless}

OS:ComponentData,
  {120b5e5f-ae36-4c79-ac0f-0caaa4d3ed6a}, ! Handle
  Component Data 1,                       ! Name
  {10fcb7a1-35de-4bdc-a870-52d13b73d8be}, ! UUID
  {ee01d009-641a-4ee0-b744-74c0d1e57353}, ! Version UUID
  1366307585,                             ! Creation Timestamp
  1366307585,                             ! Version Timestamp
  {ff1bd2d3-3864-40ce-a389-12f3b8773a63}; ! Name of Object 1

