
OS:Version,
  {7a15a439-3625-4fe5-b6b1-74323d8d079c}, ! Handle
  0.9.3;                                  ! Version Identifier

OS:SizingPeriod:DesignDay,
  {c89caf6e-558d-4ccc-b183-7ee485c3e0e2}, ! Handle
  Willow Grove Nas Ann Clg .4% Condns DP=>MDB, ! Name
  28.4,                                   ! Maximum Dry-Bulb Temperature {C}
  10.5,                                   ! Daily Dry-Bulb Temperature Range {deltaC}
  23.6,                                   ! Humidity Indicating Conditions at Maximum Dry-Bulb {BasedOnField A3}
  100106,                                 ! Barometric Pressure {Pa}
  2.5,                                    ! Wind Speed {m/s}
  270,                                    ! Wind Direction {deg}
  0,                                      ! Sky Clearness
  0,                                      ! Rain Indicator
  0,                                      ! Snow Indicator
  21,                                     ! Day of Month
  7,                                      ! Month
  SummerDesignDay,                        ! Day Type
  0,                                      ! Daylight Saving Time Indicator
  Dewpoint,                               ! Humidity Indicating Type
  ,                                       ! Humidity Indicating Day Schedule Name
  DefaultMultipliers,                     ! Dry-Bulb Temperature Range Modifier Type
  ,                                       ! Dry-Bulb Temperature Range Modifier Schedule Name
  ASHRAETau,                              ! Solar Model Indicator
  ,                                       ! Beam Solar Day Schedule Name
  ,                                       ! Diffuse Solar Day Schedule Name
  0.524,                                  ! ASHRAE Taub {dimensionless}
  1.834;                                  ! ASHRAE Taud {dimensionless}

OS:ComponentData,
  {798cfefb-1040-4350-a3f0-68c2154456f4}, ! Handle
  Component Data 1,                       ! Name
  {e504e943-125d-4393-b934-e3847bfa64dc}, ! UUID
  {51c8f3b6-0e05-4279-a92f-7f3de1c3d5b5}, ! Version UUID
  1366310285,                             ! Creation Timestamp
  1366310285,                             ! Version Timestamp
  {c89caf6e-558d-4ccc-b183-7ee485c3e0e2}; ! Name of Object 1

