
OS:Version,
  {a9e0c378-0a68-4c36-8b8e-debbabcd84d3}, ! Handle
  0.9.3;                                  ! Version Identifier

OS:SizingPeriod:DesignDay,
  {3ab23110-0aac-45c5-b11e-469e4e8fb6f3}, ! Handle
  PEORIA Ann Hum_n 99.6% Condns DP=>MCDB, ! Name
  -19,                                    ! Maximum Dry-Bulb Temperature {C}
  0,                                      ! Daily Dry-Bulb Temperature Range {deltaC}
  -24.4,                                  ! Humidity Indicating Conditions at Maximum Dry-Bulb {BasedOnField A3}
  98957,                                  ! Barometric Pressure {Pa}
  4,                                      ! Wind Speed {m/s}
  280,                                    ! Wind Direction {deg}
  0,                                      ! Sky Clearness
  0,                                      ! Rain Indicator
  0,                                      ! Snow Indicator
  21,                                     ! Day of Month
  1,                                      ! Month
  WinterDesignDay,                        ! Day Type
  0,                                      ! Daylight Saving Time Indicator
  Dewpoint,                               ! Humidity Indicating Type
  ,                                       ! Humidity Indicating Day Schedule Name
  DefaultMultipliers,                     ! Dry-Bulb Temperature Range Modifier Type
  ,                                       ! Dry-Bulb Temperature Range Modifier Schedule Name
  ASHRAEClearSky;                         ! Solar Model Indicator

OS:ComponentData,
  {682d4abd-14b9-4b0f-82d6-1df13bd551f4}, ! Handle
  Component Data 1,                       ! Name
  {9c8e1416-26b6-40e7-82f3-353a06ff22e3}, ! UUID
  {a30d3dff-9c3d-448c-b4dc-06ac88cb7b52}, ! Version UUID
  1366307384,                             ! Creation Timestamp
  1366307384,                             ! Version Timestamp
  {3ab23110-0aac-45c5-b11e-469e4e8fb6f3}; ! Name of Object 1

