
OS:Version,
  {91e6e243-063e-4175-9319-b1a86a78e4ce}, ! Handle
  0.9.3;                                  ! Version Identifier

OS:SizingPeriod:DesignDay,
  {f5d9d0d9-09a0-4cb1-844e-e9ba3a1ea73f}, ! Handle
  TALLAHASSEE Ann Clg 2% Condns Enth=>MDB, ! Name
  30.7,                                   ! Maximum Dry-Bulb Temperature {C}
  10.6,                                   ! Daily Dry-Bulb Temperature Range {deltaC}
  78700,                                  ! Humidity Indicating Conditions at Maximum Dry-Bulb {BasedOnField A3}
  101073,                                 ! Barometric Pressure {Pa}
  3.4,                                    ! Wind Speed {m/s}
  10,                                     ! Wind Direction {deg}
  0,                                      ! Sky Clearness
  0,                                      ! Rain Indicator
  0,                                      ! Snow Indicator
  21,                                     ! Day of Month
  7,                                      ! Month
  SummerDesignDay,                        ! Day Type
  0,                                      ! Daylight Saving Time Indicator
  Enthalpy,                               ! Humidity Indicating Type
  ,                                       ! Humidity Indicating Day Schedule Name
  DefaultMultipliers,                     ! Dry-Bulb Temperature Range Modifier Type
  ,                                       ! Dry-Bulb Temperature Range Modifier Schedule Name
  ASHRAETau,                              ! Solar Model Indicator
  ,                                       ! Beam Solar Day Schedule Name
  ,                                       ! Diffuse Solar Day Schedule Name
  0.537,                                  ! ASHRAE Taub {dimensionless}
  1.879;                                  ! ASHRAE Taud {dimensionless}

OS:ComponentData,
  {ef5401d3-14db-4c99-8e8d-89eb91d9b2d0}, ! Handle
  Component Data 1,                       ! Name
  {f37f1dbc-6a6d-45ed-bcfb-03a4d0a2c897}, ! UUID
  {c007b523-3d40-450a-90e8-946c9192b785}, ! Version UUID
  1366306921,                             ! Creation Timestamp
  1366306921,                             ! Version Timestamp
  {f5d9d0d9-09a0-4cb1-844e-e9ba3a1ea73f}; ! Name of Object 1

