
OS:Version,
  {465d8c13-080a-43bb-8609-703cf4a66582}, ! Handle
  0.9.3;                                  ! Version Identifier

OS:SizingPeriod:DesignDay,
  {dfddc28f-09e7-40c4-a5a1-fdd08eb1cb1b}, ! Handle
  Winchester Rgnl Ann Hum_n 99% Condns DP=>MCDB, ! Name
  -6.5,                                   ! Maximum Dry-Bulb Temperature {C}
  0,                                      ! Daily Dry-Bulb Temperature Range {deltaC}
  -15.5,                                  ! Humidity Indicating Conditions at Maximum Dry-Bulb {BasedOnField A3}
  98686,                                  ! Barometric Pressure {Pa}
  3.4,                                    ! Wind Speed {m/s}
  320,                                    ! Wind Direction {deg}
  0,                                      ! Sky Clearness
  0,                                      ! Rain Indicator
  0,                                      ! Snow Indicator
  21,                                     ! Day of Month
  1,                                      ! Month
  WinterDesignDay,                        ! Day Type
  0,                                      ! Daylight Saving Time Indicator
  Dewpoint,                               ! Humidity Indicating Type
  ,                                       ! Humidity Indicating Day Schedule Name
  DefaultMultipliers,                     ! Dry-Bulb Temperature Range Modifier Type
  ,                                       ! Dry-Bulb Temperature Range Modifier Schedule Name
  ASHRAEClearSky;                         ! Solar Model Indicator

OS:ComponentData,
  {181e4832-1a16-4fd9-8be4-d3b97d2cf2ff}, ! Handle
  Component Data 1,                       ! Name
  {d0a9fc07-beb8-4431-8ae8-f2792240f43b}, ! UUID
  {e5016d0f-d1a7-4806-9cd1-edd226b2950b}, ! Version UUID
  1366311223,                             ! Creation Timestamp
  1366311223,                             ! Version Timestamp
  {dfddc28f-09e7-40c4-a5a1-fdd08eb1cb1b}; ! Name of Object 1

