
OS:Version,
  {a4738917-0d62-445e-8533-c75108b5b770}, ! Handle
  0.9.3;                                  ! Version Identifier

OS:SizingPeriod:DesignDay,
  {826dac77-de30-40af-9970-59653f6e4470}, ! Handle
  Seattle-Tacoma/Int'l A Ann Clg 2% Condns DB=>MWB, ! Name
  25.5,                                   ! Maximum Dry-Bulb Temperature {C}
  10.4,                                   ! Daily Dry-Bulb Temperature Range {deltaC}
  17,                                     ! Humidity Indicating Conditions at Maximum Dry-Bulb {BasedOnField A3}
  99690,                                  ! Barometric Pressure {Pa}
  4.2,                                    ! Wind Speed {m/s}
  350,                                    ! Wind Direction {deg}
  0,                                      ! Sky Clearness
  0,                                      ! Rain Indicator
  0,                                      ! Snow Indicator
  21,                                     ! Day of Month
  8,                                      ! Month
  SummerDesignDay,                        ! Day Type
  0,                                      ! Daylight Saving Time Indicator
  Wetbulb,                                ! Humidity Indicating Type
  ,                                       ! Humidity Indicating Day Schedule Name
  DefaultMultipliers,                     ! Dry-Bulb Temperature Range Modifier Type
  ,                                       ! Dry-Bulb Temperature Range Modifier Schedule Name
  ASHRAETau,                              ! Solar Model Indicator
  ,                                       ! Beam Solar Day Schedule Name
  ,                                       ! Diffuse Solar Day Schedule Name
  0.352,                                  ! ASHRAE Taub {dimensionless}
  2.561;                                  ! ASHRAE Taud {dimensionless}

OS:ComponentData,
  {d5abbe03-b65e-4357-a9e6-186649476766}, ! Handle
  Component Data 1,                       ! Name
  {fccb59a8-a803-4191-8b6d-287c550468ff}, ! UUID
  {d864d712-d678-4729-a769-0095b3fd70e1}, ! Version UUID
  1366311359,                             ! Creation Timestamp
  1366311359,                             ! Version Timestamp
  {826dac77-de30-40af-9970-59653f6e4470}; ! Name of Object 1

