
OS:Version,
  {34d672e2-cdfc-4a7f-a123-af81a9dae20e}, ! Handle
  0.9.3;                                  ! Version Identifier

OS:SizingPeriod:DesignDay,
  {4c984e10-39bd-4d20-9314-1c266dca5493}, ! Handle
  Marshall Ryan Awos Ann Htg 99.6% Condns DB, ! Name
  -24.9,                                  ! Maximum Dry-Bulb Temperature {C}
  0,                                      ! Daily Dry-Bulb Temperature Range {deltaC}
  -24.9,                                  ! Humidity Indicating Conditions at Maximum Dry-Bulb {BasedOnField A3}
  97086,                                  ! Barometric Pressure {Pa}
  5.2,                                    ! Wind Speed {m/s}
  320,                                    ! Wind Direction {deg}
  0,                                      ! Sky Clearness
  0,                                      ! Rain Indicator
  0,                                      ! Snow Indicator
  21,                                     ! Day of Month
  1,                                      ! Month
  WinterDesignDay,                        ! Day Type
  0,                                      ! Daylight Saving Time Indicator
  Wetbulb,                                ! Humidity Indicating Type
  ,                                       ! Humidity Indicating Day Schedule Name
  DefaultMultipliers,                     ! Dry-Bulb Temperature Range Modifier Type
  ,                                       ! Dry-Bulb Temperature Range Modifier Schedule Name
  ASHRAEClearSky;                         ! Solar Model Indicator

OS:ComponentData,
  {90c0aaaa-22f5-4c0c-91c7-caf2e5835486}, ! Handle
  Component Data 1,                       ! Name
  {b2ebe511-94c8-4c4c-9a0e-4d69105a6c37}, ! UUID
  {e6303606-1cdd-4d4a-8144-7d34c5614d04}, ! Version UUID
  1366308298,                             ! Creation Timestamp
  1366308298,                             ! Version Timestamp
  {4c984e10-39bd-4d20-9314-1c266dca5493}; ! Name of Object 1

