
OS:Version,
  {2c9e5781-f75d-4d67-891c-5fdd0a240993}, ! Handle
  0.9.3;                                  ! Version Identifier

OS:SizingPeriod:DesignDay,
  {860dc5f0-506d-4e8c-8cf3-19fe258bb751}, ! Handle
  Waco Ann Htg Wind 99.6% Condns WS=>MCDB, ! Name
  8.7,                                    ! Maximum Dry-Bulb Temperature {C}
  0,                                      ! Daily Dry-Bulb Temperature Range {deltaC}
  8.7,                                    ! Humidity Indicating Conditions at Maximum Dry-Bulb {BasedOnField A3}
  99477,                                  ! Barometric Pressure {Pa}
  12.5,                                   ! Wind Speed {m/s}
  0,                                      ! Wind Direction {deg}
  0,                                      ! Sky Clearness
  0,                                      ! Rain Indicator
  0,                                      ! Snow Indicator
  21,                                     ! Day of Month
  1,                                      ! Month
  WinterDesignDay,                        ! Day Type
  0,                                      ! Daylight Saving Time Indicator
  Wetbulb,                                ! Humidity Indicating Type
  ,                                       ! Humidity Indicating Day Schedule Name
  DefaultMultipliers,                     ! Dry-Bulb Temperature Range Modifier Type
  ,                                       ! Dry-Bulb Temperature Range Modifier Schedule Name
  ASHRAEClearSky;                         ! Solar Model Indicator

OS:ComponentData,
  {aaecafd0-fc93-4868-b235-7eff546aadf9}, ! Handle
  Component Data 1,                       ! Name
  {64ee3c96-0b71-4554-bed6-c993df50040a}, ! UUID
  {341ecdae-3797-44e3-a7ba-13a8ffd60b82}, ! Version UUID
  1366310919,                             ! Creation Timestamp
  1366310919,                             ! Version Timestamp
  {860dc5f0-506d-4e8c-8cf3-19fe258bb751}; ! Name of Object 1

