
OS:Version,
  {b92f8bd1-5676-4225-86f1-60c37d48d811}, ! Handle
  0.9.3;                                  ! Version Identifier

OS:SizingPeriod:DesignDay,
  {e4c3b6bd-94a0-4bb5-ab2b-78a3feac874f}, ! Handle
  Pine Bluff Faa Ap Ann Clg 1% Condns WB=>MDB, ! Name
  32.8,                                   ! Maximum Dry-Bulb Temperature {C}
  10.3,                                   ! Daily Dry-Bulb Temperature Range {deltaC}
  26.3,                                   ! Humidity Indicating Conditions at Maximum Dry-Bulb {BasedOnField A3}
  100570,                                 ! Barometric Pressure {Pa}
  2.9,                                    ! Wind Speed {m/s}
  210,                                    ! Wind Direction {deg}
  0,                                      ! Sky Clearness
  0,                                      ! Rain Indicator
  0,                                      ! Snow Indicator
  21,                                     ! Day of Month
  7,                                      ! Month
  SummerDesignDay,                        ! Day Type
  0,                                      ! Daylight Saving Time Indicator
  Wetbulb,                                ! Humidity Indicating Type
  ,                                       ! Humidity Indicating Day Schedule Name
  DefaultMultipliers,                     ! Dry-Bulb Temperature Range Modifier Type
  ,                                       ! Dry-Bulb Temperature Range Modifier Schedule Name
  ASHRAETau,                              ! Solar Model Indicator
  ,                                       ! Beam Solar Day Schedule Name
  ,                                       ! Diffuse Solar Day Schedule Name
  0.517,                                  ! ASHRAE Taub {dimensionless}
  1.899;                                  ! ASHRAE Taud {dimensionless}

OS:ComponentData,
  {646e29c6-349a-4436-9696-0ccbb2609b27}, ! Handle
  Component Data 1,                       ! Name
  {203ce4c4-b208-4f4b-be5c-3bb61fe599ff}, ! UUID
  {7ceaacf7-edd0-493a-a2fc-0e8e54c4c3fc}, ! Version UUID
  1366306241,                             ! Creation Timestamp
  1366306241,                             ! Version Timestamp
  {e4c3b6bd-94a0-4bb5-ab2b-78a3feac874f}; ! Name of Object 1

