
OS:Version,
  {1710c20c-cbdf-4c2c-b347-88f267f3c5fa}, ! Handle
  0.9.3;                                  ! Version Identifier

OS:SizingPeriod:DesignDay,
  {8d38f0e2-22d4-45a8-b0c2-71678af54317}, ! Handle
  Mc Gregor  Awos Ann Clg 2% Condns Enth=>MDB, ! Name
  32.7,                                   ! Maximum Dry-Bulb Temperature {C}
  12.2,                                   ! Daily Dry-Bulb Temperature Range {deltaC}
  77400,                                  ! Humidity Indicating Conditions at Maximum Dry-Bulb {BasedOnField A3}
  99181,                                  ! Barometric Pressure {Pa}
  4.4,                                    ! Wind Speed {m/s}
  170,                                    ! Wind Direction {deg}
  0,                                      ! Sky Clearness
  0,                                      ! Rain Indicator
  0,                                      ! Snow Indicator
  21,                                     ! Day of Month
  7,                                      ! Month
  SummerDesignDay,                        ! Day Type
  0,                                      ! Daylight Saving Time Indicator
  Enthalpy,                               ! Humidity Indicating Type
  ,                                       ! Humidity Indicating Day Schedule Name
  DefaultMultipliers,                     ! Dry-Bulb Temperature Range Modifier Type
  ,                                       ! Dry-Bulb Temperature Range Modifier Schedule Name
  ASHRAETau,                              ! Solar Model Indicator
  ,                                       ! Beam Solar Day Schedule Name
  ,                                       ! Diffuse Solar Day Schedule Name
  0.456,                                  ! ASHRAE Taub {dimensionless}
  2.109;                                  ! ASHRAE Taud {dimensionless}

OS:ComponentData,
  {c0d6f57f-234c-469c-b4f9-15024fff6da7}, ! Handle
  Component Data 1,                       ! Name
  {2be3d977-71f4-4bc6-830b-feb05bbacd25}, ! UUID
  {3f773a59-d710-4f20-bb4c-4d75ae77e0f5}, ! Version UUID
  1366310824,                             ! Creation Timestamp
  1366310824,                             ! Version Timestamp
  {8d38f0e2-22d4-45a8-b0c2-71678af54317}; ! Name of Object 1

