
OS:Version,
  {c5a087d4-fbf9-4aaf-92f6-dbe6137fc83a}, ! Handle
  0.9.3;                                  ! Version Identifier

OS:SizingPeriod:DesignDay,
  {cca82138-0302-4d3e-9f6f-179d5f552725}, ! Handle
  San Antonio Intl Ap Ann Clg 2% Condns WB=>MDB, ! Name
  30.1,                                   ! Maximum Dry-Bulb Temperature {C}
  11.2,                                   ! Daily Dry-Bulb Temperature Range {deltaC}
  24.9,                                   ! Humidity Indicating Conditions at Maximum Dry-Bulb {BasedOnField A3}
  98393,                                  ! Barometric Pressure {Pa}
  4.3,                                    ! Wind Speed {m/s}
  160,                                    ! Wind Direction {deg}
  0,                                      ! Sky Clearness
  0,                                      ! Rain Indicator
  0,                                      ! Snow Indicator
  21,                                     ! Day of Month
  8,                                      ! Month
  SummerDesignDay,                        ! Day Type
  0,                                      ! Daylight Saving Time Indicator
  Wetbulb,                                ! Humidity Indicating Type
  ,                                       ! Humidity Indicating Day Schedule Name
  DefaultMultipliers,                     ! Dry-Bulb Temperature Range Modifier Type
  ,                                       ! Dry-Bulb Temperature Range Modifier Schedule Name
  ASHRAETau,                              ! Solar Model Indicator
  ,                                       ! Beam Solar Day Schedule Name
  ,                                       ! Diffuse Solar Day Schedule Name
  0.449,                                  ! ASHRAE Taub {dimensionless}
  2.144;                                  ! ASHRAE Taud {dimensionless}

OS:ComponentData,
  {01285761-6e3d-4e47-8cd5-991cb2d4cbdf}, ! Handle
  Component Data 1,                       ! Name
  {e6565d8e-591e-4409-b5ac-4612a1a8353a}, ! UUID
  {7622a637-a4a6-4742-9713-df7875ef66a3}, ! Version UUID
  1366310899,                             ! Creation Timestamp
  1366310899,                             ! Version Timestamp
  {cca82138-0302-4d3e-9f6f-179d5f552725}; ! Name of Object 1

