
OS:Version,
  {a4fa7358-9cf7-49dc-8f7a-dc474f29097a}, ! Handle
  0.9.3;                                  ! Version Identifier

OS:SizingPeriod:DesignDay,
  {b2238dbf-8bba-4b58-88b8-19a8a34f9128}, ! Handle
  Wichita Col  Jabara Ann Htg 99.6% Condns DB, ! Name
  -14,                                    ! Maximum Dry-Bulb Temperature {C}
  0,                                      ! Daily Dry-Bulb Temperature Range {deltaC}
  -14,                                    ! Humidity Indicating Conditions at Maximum Dry-Bulb {BasedOnField A3}
  96230,                                  ! Barometric Pressure {Pa}
  4.9,                                    ! Wind Speed {m/s}
  350,                                    ! Wind Direction {deg}
  0,                                      ! Sky Clearness
  0,                                      ! Rain Indicator
  0,                                      ! Snow Indicator
  21,                                     ! Day of Month
  1,                                      ! Month
  WinterDesignDay,                        ! Day Type
  0,                                      ! Daylight Saving Time Indicator
  Wetbulb,                                ! Humidity Indicating Type
  ,                                       ! Humidity Indicating Day Schedule Name
  DefaultMultipliers,                     ! Dry-Bulb Temperature Range Modifier Type
  ,                                       ! Dry-Bulb Temperature Range Modifier Schedule Name
  ASHRAEClearSky;                         ! Solar Model Indicator

