
OS:Version,
  {12ae4e9a-6f94-4212-8b96-db05f045214a}, ! Handle
  0.9.3;                                  ! Version Identifier

OS:SizingPeriod:DesignDay,
  {3c9214f9-15c7-41df-b286-0a27c639f7e8}, ! Handle
  Port Arthur Jefferson County Ann Clg .4% Condns Enth=>MDB, ! Name
  31.7,                                   ! Maximum Dry-Bulb Temperature {C}
  8.9,                                    ! Daily Dry-Bulb Temperature Range {deltaC}
  87200,                                  ! Humidity Indicating Conditions at Maximum Dry-Bulb {BasedOnField A3}
  101265,                                 ! Barometric Pressure {Pa}
  3.6,                                    ! Wind Speed {m/s}
  200,                                    ! Wind Direction {deg}
  0,                                      ! Sky Clearness
  0,                                      ! Rain Indicator
  0,                                      ! Snow Indicator
  21,                                     ! Day of Month
  7,                                      ! Month
  SummerDesignDay,                        ! Day Type
  0,                                      ! Daylight Saving Time Indicator
  Enthalpy,                               ! Humidity Indicating Type
  ,                                       ! Humidity Indicating Day Schedule Name
  DefaultMultipliers,                     ! Dry-Bulb Temperature Range Modifier Type
  ,                                       ! Dry-Bulb Temperature Range Modifier Schedule Name
  ASHRAETau,                              ! Solar Model Indicator
  ,                                       ! Beam Solar Day Schedule Name
  ,                                       ! Diffuse Solar Day Schedule Name
  0.515,                                  ! ASHRAE Taub {dimensionless}
  1.943;                                  ! ASHRAE Taud {dimensionless}

OS:ComponentData,
  {5b4fb439-0d46-4281-a123-f9482b77f204}, ! Handle
  Component Data 1,                       ! Name
  {1394058d-6d8e-49cb-a401-b754006bebc3}, ! UUID
  {ba3a35e4-4705-44d3-8422-32e6257582d0}, ! Version UUID
  1366310857,                             ! Creation Timestamp
  1366310857,                             ! Version Timestamp
  {3c9214f9-15c7-41df-b286-0a27c639f7e8}; ! Name of Object 1

