
OS:Version,
  {e96f629d-c64e-4990-8905-7f62450dcdcb}, ! Handle
  0.9.3;                                  ! Version Identifier

OS:SizingPeriod:DesignDay,
  {11c7638b-e5c8-462f-aae4-f3b96891c405}, ! Handle
  Moline Quad City Intl Ap Ann Clg .4% Condns WB=>MDB, ! Name
  32.1,                                   ! Maximum Dry-Bulb Temperature {C}
  11.1,                                   ! Daily Dry-Bulb Temperature Range {deltaC}
  26.2,                                   ! Humidity Indicating Conditions at Maximum Dry-Bulb {BasedOnField A3}
  99181,                                  ! Barometric Pressure {Pa}
  4.9,                                    ! Wind Speed {m/s}
  210,                                    ! Wind Direction {deg}
  0,                                      ! Sky Clearness
  0,                                      ! Rain Indicator
  0,                                      ! Snow Indicator
  21,                                     ! Day of Month
  7,                                      ! Month
  SummerDesignDay,                        ! Day Type
  0,                                      ! Daylight Saving Time Indicator
  Wetbulb,                                ! Humidity Indicating Type
  ,                                       ! Humidity Indicating Day Schedule Name
  DefaultMultipliers,                     ! Dry-Bulb Temperature Range Modifier Type
  ,                                       ! Dry-Bulb Temperature Range Modifier Schedule Name
  ASHRAETau,                              ! Solar Model Indicator
  ,                                       ! Beam Solar Day Schedule Name
  ,                                       ! Diffuse Solar Day Schedule Name
  0.449,                                  ! ASHRAE Taub {dimensionless}
  2.068;                                  ! ASHRAE Taud {dimensionless}

OS:ComponentData,
  {0a44ca25-e864-4a6c-8ea2-7777ff36c00f}, ! Handle
  Component Data 1,                       ! Name
  {703261cf-710f-4c3e-8b27-7a2ac8583891}, ! UUID
  {dfe29005-a1de-491f-950a-411b5c2200c3}, ! Version UUID
  1366307368,                             ! Creation Timestamp
  1366307368,                             ! Version Timestamp
  {11c7638b-e5c8-462f-aae4-f3b96891c405}; ! Name of Object 1

