
OS:Version,
  {ba9b4f55-5b5a-42cb-a514-269be3078659}, ! Handle
  0.9.3;                                  ! Version Identifier

OS:SizingPeriod:DesignDay,
  {404fa826-b5ac-4215-bb0f-8c9b29d2a4f2}, ! Handle
  San Antonio Stinson Ann Htg 99.6% Condns DB, ! Name
  -0.8,                                   ! Maximum Dry-Bulb Temperature {C}
  0,                                      ! Daily Dry-Bulb Temperature Range {deltaC}
  -0.8,                                   ! Humidity Indicating Conditions at Maximum Dry-Bulb {BasedOnField A3}
  99228,                                  ! Barometric Pressure {Pa}
  2.1,                                    ! Wind Speed {m/s}
  10,                                     ! Wind Direction {deg}
  0,                                      ! Sky Clearness
  0,                                      ! Rain Indicator
  0,                                      ! Snow Indicator
  21,                                     ! Day of Month
  12,                                     ! Month
  WinterDesignDay,                        ! Day Type
  0,                                      ! Daylight Saving Time Indicator
  Wetbulb,                                ! Humidity Indicating Type
  ,                                       ! Humidity Indicating Day Schedule Name
  DefaultMultipliers,                     ! Dry-Bulb Temperature Range Modifier Type
  ,                                       ! Dry-Bulb Temperature Range Modifier Schedule Name
  ASHRAEClearSky;                         ! Solar Model Indicator

OS:ComponentData,
  {6fedffc3-f604-4635-9ed1-47206b504117}, ! Handle
  Component Data 1,                       ! Name
  {b0fe5c05-b5b5-499d-8545-4275928fbffd}, ! UUID
  {89e138f6-151e-4330-bb05-f4d88deeed87}, ! Version UUID
  1366310885,                             ! Creation Timestamp
  1366310885,                             ! Version Timestamp
  {404fa826-b5ac-4215-bb0f-8c9b29d2a4f2}; ! Name of Object 1

