
OS:Version,
  {6b902fad-011b-42c8-ae73-061184520662}, ! Handle
  0.9.3;                                  ! Version Identifier

OS:SizingPeriod:DesignDay,
  {72d7ea21-a594-4bf6-80ed-5c9e3672db55}, ! Handle
  Roswell Ann Clg 1% Condns DB=>MWB,      ! Name
  36.4,                                   ! Maximum Dry-Bulb Temperature {C}
  14.1,                                   ! Daily Dry-Bulb Temperature Range {deltaC}
  18.4,                                   ! Humidity Indicating Conditions at Maximum Dry-Bulb {BasedOnField A3}
  88660,                                  ! Barometric Pressure {Pa}
  5.3,                                    ! Wind Speed {m/s}
  140,                                    ! Wind Direction {deg}
  0,                                      ! Sky Clearness
  0,                                      ! Rain Indicator
  0,                                      ! Snow Indicator
  21,                                     ! Day of Month
  7,                                      ! Month
  SummerDesignDay,                        ! Day Type
  0,                                      ! Daylight Saving Time Indicator
  Wetbulb,                                ! Humidity Indicating Type
  ,                                       ! Humidity Indicating Day Schedule Name
  DefaultMultipliers,                     ! Dry-Bulb Temperature Range Modifier Type
  ,                                       ! Dry-Bulb Temperature Range Modifier Schedule Name
  ASHRAETau,                              ! Solar Model Indicator
  ,                                       ! Beam Solar Day Schedule Name
  ,                                       ! Diffuse Solar Day Schedule Name
  0.461,                                  ! ASHRAE Taub {dimensionless}
  1.916;                                  ! ASHRAE Taud {dimensionless}

