
OS:Version,
  {490778ce-ff9a-4d8e-b239-28cf1e30d36a}, ! Handle
  0.9.3;                                  ! Version Identifier

OS:SizingPeriod:DesignDay,
  {56234a26-6acd-4b04-a8b0-72edce175570}, ! Handle
  Orlando Executive Ap Ann Clg 2% Condns DP=>MDB, ! Name
  27.3,                                   ! Maximum Dry-Bulb Temperature {C}
  8.8,                                    ! Daily Dry-Bulb Temperature Range {deltaC}
  24.6,                                   ! Humidity Indicating Conditions at Maximum Dry-Bulb {BasedOnField A3}
  100929,                                 ! Barometric Pressure {Pa}
  3.7,                                    ! Wind Speed {m/s}
  270,                                    ! Wind Direction {deg}
  0,                                      ! Sky Clearness
  0,                                      ! Rain Indicator
  0,                                      ! Snow Indicator
  21,                                     ! Day of Month
  7,                                      ! Month
  SummerDesignDay,                        ! Day Type
  0,                                      ! Daylight Saving Time Indicator
  Dewpoint,                               ! Humidity Indicating Type
  ,                                       ! Humidity Indicating Day Schedule Name
  DefaultMultipliers,                     ! Dry-Bulb Temperature Range Modifier Type
  ,                                       ! Dry-Bulb Temperature Range Modifier Schedule Name
  ASHRAETau,                              ! Solar Model Indicator
  ,                                       ! Beam Solar Day Schedule Name
  ,                                       ! Diffuse Solar Day Schedule Name
  0.516,                                  ! ASHRAE Taub {dimensionless}
  1.924;                                  ! ASHRAE Taud {dimensionless}

OS:ComponentData,
  {d72c5d2a-bcfb-46ef-b08d-c5dca84c7bc8}, ! Handle
  Component Data 1,                       ! Name
  {59a3a0ab-cd63-4298-b69b-e3022a544183}, ! UUID
  {b2071f80-0d7f-412a-a5e5-47212b5e9c4a}, ! Version UUID
  1366306893,                             ! Creation Timestamp
  1366306893,                             ! Version Timestamp
  {56234a26-6acd-4b04-a8b0-72edce175570}; ! Name of Object 1

