
OS:Version,
  {9ec6a4ed-47b1-4fee-a3bf-89c3c6e66ee7}, ! Handle
  0.9.3;                                  ! Version Identifier

OS:SizingPeriod:DesignDay,
  {6502a314-57c6-4c4f-9baf-2774d07dcb46}, ! Handle
  Vernal Ann Htg 99.6% Condns DB,         ! Name
  -17.2,                                  ! Maximum Dry-Bulb Temperature {C}
  0,                                      ! Daily Dry-Bulb Temperature Range {deltaC}
  -17.2,                                  ! Humidity Indicating Conditions at Maximum Dry-Bulb {BasedOnField A3}
  83441,                                  ! Barometric Pressure {Pa}
  1.4,                                    ! Wind Speed {m/s}
  290,                                    ! Wind Direction {deg}
  0,                                      ! Sky Clearness
  0,                                      ! Rain Indicator
  0,                                      ! Snow Indicator
  21,                                     ! Day of Month
  12,                                     ! Month
  WinterDesignDay,                        ! Day Type
  0,                                      ! Daylight Saving Time Indicator
  Wetbulb,                                ! Humidity Indicating Type
  ,                                       ! Humidity Indicating Day Schedule Name
  DefaultMultipliers,                     ! Dry-Bulb Temperature Range Modifier Type
  ,                                       ! Dry-Bulb Temperature Range Modifier Schedule Name
  ASHRAEClearSky;                         ! Solar Model Indicator

OS:ComponentData,
  {50f89a5d-2ced-458f-a2a6-ee5bd21974b2}, ! Handle
  Component Data 1,                       ! Name
  {1267ec16-5154-4c38-94d7-96ad8c98c749}, ! UUID
  {f407d01a-4b1c-4f59-bc69-ae0990218ac2}, ! Version UUID
  1366311003,                             ! Creation Timestamp
  1366311003,                             ! Version Timestamp
  {6502a314-57c6-4c4f-9baf-2774d07dcb46}; ! Name of Object 1

