
OS:Version,
  {dc525684-6a87-498d-b5eb-5bfa98940945}, ! Handle
  0.9.3;                                  ! Version Identifier

OS:SizingPeriod:DesignDay,
  {8b4f326a-66fa-47d5-934c-57339c1fdc58}, ! Handle
  Pasco Ann Clg 2% Condns DP=>MDB,        ! Name
  24.7,                                   ! Maximum Dry-Bulb Temperature {C}
  17.8,                                   ! Daily Dry-Bulb Temperature Range {deltaC}
  16,                                     ! Humidity Indicating Conditions at Maximum Dry-Bulb {BasedOnField A3}
  99702,                                  ! Barometric Pressure {Pa}
  3.1,                                    ! Wind Speed {m/s}
  330,                                    ! Wind Direction {deg}
  0,                                      ! Sky Clearness
  0,                                      ! Rain Indicator
  0,                                      ! Snow Indicator
  21,                                     ! Day of Month
  7,                                      ! Month
  SummerDesignDay,                        ! Day Type
  0,                                      ! Daylight Saving Time Indicator
  Dewpoint,                               ! Humidity Indicating Type
  ,                                       ! Humidity Indicating Day Schedule Name
  DefaultMultipliers,                     ! Dry-Bulb Temperature Range Modifier Type
  ,                                       ! Dry-Bulb Temperature Range Modifier Schedule Name
  ASHRAETau,                              ! Solar Model Indicator
  ,                                       ! Beam Solar Day Schedule Name
  ,                                       ! Diffuse Solar Day Schedule Name
  0.398,                                  ! ASHRAE Taub {dimensionless}
  2.219;                                  ! ASHRAE Taud {dimensionless}

OS:ComponentData,
  {d88a369e-8ab4-407f-b02c-18128aa69af0}, ! Handle
  Component Data 1,                       ! Name
  {3343321f-bfbb-43dd-8f48-714da248dd49}, ! UUID
  {922a4e42-dc66-483c-98e5-ed11bcba545d}, ! Version UUID
  1366311321,                             ! Creation Timestamp
  1366311321,                             ! Version Timestamp
  {8b4f326a-66fa-47d5-934c-57339c1fdc58}; ! Name of Object 1

