
OS:Version,
  {83b528f5-48c0-437e-a74b-b50b0f5efad5}, ! Handle
  0.9.3;                                  ! Version Identifier

OS:SizingPeriod:DesignDay,
  {85208029-2286-4811-bcfb-83ac2fe6379d}, ! Handle
  Rochester International Arpt Ann Htg 99.6% Condns DB, ! Name
  -26.2,                                  ! Maximum Dry-Bulb Temperature {C}
  0,                                      ! Daily Dry-Bulb Temperature Range {deltaC}
  -26.2,                                  ! Humidity Indicating Conditions at Maximum Dry-Bulb {BasedOnField A3}
  96634,                                  ! Barometric Pressure {Pa}
  5.7,                                    ! Wind Speed {m/s}
  310,                                    ! Wind Direction {deg}
  0,                                      ! Sky Clearness
  0,                                      ! Rain Indicator
  0,                                      ! Snow Indicator
  21,                                     ! Day of Month
  1,                                      ! Month
  WinterDesignDay,                        ! Day Type
  0,                                      ! Daylight Saving Time Indicator
  Wetbulb,                                ! Humidity Indicating Type
  ,                                       ! Humidity Indicating Day Schedule Name
  DefaultMultipliers,                     ! Dry-Bulb Temperature Range Modifier Type
  ,                                       ! Dry-Bulb Temperature Range Modifier Schedule Name
  ASHRAEClearSky;                         ! Solar Model Indicator

OS:ComponentData,
  {96593c40-5295-45b6-bab4-8751817a5801}, ! Handle
  Component Data 1,                       ! Name
  {5fb84d71-e075-4600-a7ba-a06f432e151f}, ! UUID
  {59b22d57-1699-4df3-a2ac-0566f45f0f17}, ! Version UUID
  1366308396,                             ! Creation Timestamp
  1366308396,                             ! Version Timestamp
  {85208029-2286-4811-bcfb-83ac2fe6379d}; ! Name of Object 1

