
OS:Version,
  {57c49a15-fe1f-42bf-9c63-ba2384251a9a}, ! Handle
  0.9.3;                                  ! Version Identifier

OS:SizingPeriod:DesignDay,
  {2f0ceeaf-64c6-49cd-a8e3-6626894aa38c}, ! Handle
  Norfolk Ann Hum_n 99.6% Condns DP=>MCDB, ! Name
  -3,                                     ! Maximum Dry-Bulb Temperature {C}
  0,                                      ! Daily Dry-Bulb Temperature Range {deltaC}
  -16.2,                                  ! Humidity Indicating Conditions at Maximum Dry-Bulb {BasedOnField A3}
  101217,                                 ! Barometric Pressure {Pa}
  4.8,                                    ! Wind Speed {m/s}
  0,                                      ! Wind Direction {deg}
  0,                                      ! Sky Clearness
  0,                                      ! Rain Indicator
  0,                                      ! Snow Indicator
  21,                                     ! Day of Month
  1,                                      ! Month
  WinterDesignDay,                        ! Day Type
  0,                                      ! Daylight Saving Time Indicator
  Dewpoint,                               ! Humidity Indicating Type
  ,                                       ! Humidity Indicating Day Schedule Name
  DefaultMultipliers,                     ! Dry-Bulb Temperature Range Modifier Type
  ,                                       ! Dry-Bulb Temperature Range Modifier Schedule Name
  ASHRAEClearSky;                         ! Solar Model Indicator

OS:ComponentData,
  {93d3a229-d8cb-477b-8664-6e9559b85ef0}, ! Handle
  Component Data 1,                       ! Name
  {ef6c6304-6e46-4b04-81d8-2b56a4a6d92b}, ! UUID
  {3a0152b1-9d67-452e-8dfb-a48cd6d1aedd}, ! Version UUID
  1366311128,                             ! Creation Timestamp
  1366311128,                             ! Version Timestamp
  {2f0ceeaf-64c6-49cd-a8e3-6626894aa38c}; ! Name of Object 1

