
OS:Version,
  {52495493-f9e1-4093-949a-54b557d86654}, ! Handle
  0.9.3;                                  ! Version Identifier

OS:SizingPeriod:DesignDay,
  {79bf180e-c196-4f7b-b986-9d8b16053be1}, ! Handle
  Valparaiso Elgin Afb Ann Clg 1% Condns DB=>MWB, ! Name
  32.6,                                   ! Maximum Dry-Bulb Temperature {C}
  8,                                      ! Daily Dry-Bulb Temperature Range {deltaC}
  24.9,                                   ! Humidity Indicating Conditions at Maximum Dry-Bulb {BasedOnField A3}
  101085,                                 ! Barometric Pressure {Pa}
  4.1,                                    ! Wind Speed {m/s}
  210,                                    ! Wind Direction {deg}
  0,                                      ! Sky Clearness
  0,                                      ! Rain Indicator
  0,                                      ! Snow Indicator
  21,                                     ! Day of Month
  7,                                      ! Month
  SummerDesignDay,                        ! Day Type
  0,                                      ! Daylight Saving Time Indicator
  Wetbulb,                                ! Humidity Indicating Type
  ,                                       ! Humidity Indicating Day Schedule Name
  DefaultMultipliers,                     ! Dry-Bulb Temperature Range Modifier Type
  ,                                       ! Dry-Bulb Temperature Range Modifier Schedule Name
  ASHRAETau,                              ! Solar Model Indicator
  ,                                       ! Beam Solar Day Schedule Name
  ,                                       ! Diffuse Solar Day Schedule Name
  0.527,                                  ! ASHRAE Taub {dimensionless}
  1.901;                                  ! ASHRAE Taud {dimensionless}

OS:ComponentData,
  {bfe3464b-7814-40aa-b994-b07518bcedbf}, ! Handle
  Component Data 1,                       ! Name
  {26fb0e56-91b5-4964-9faf-74001620620e}, ! UUID
  {59917509-102f-43c9-b3c7-059cd5273f70}, ! Version UUID
  1366306942,                             ! Creation Timestamp
  1366306942,                             ! Version Timestamp
  {79bf180e-c196-4f7b-b986-9d8b16053be1}; ! Name of Object 1

