
OS:Version,
  {d6369aec-01f9-46f2-a59b-da4854f0cd08}, ! Handle
  0.9.3;                                  ! Version Identifier

OS:SizingPeriod:DesignDay,
  {d7527988-7711-442d-9b64-b8f25c5b9653}, ! Handle
  Traverse City Cherry Capital Ann Htg Wind 99.6% Condns WS=>MCDB, ! Name
  -4.6,                                   ! Maximum Dry-Bulb Temperature {C}
  0,                                      ! Daily Dry-Bulb Temperature Range {deltaC}
  -4.6,                                   ! Humidity Indicating Conditions at Maximum Dry-Bulb {BasedOnField A3}
  99087,                                  ! Barometric Pressure {Pa}
  11,                                     ! Wind Speed {m/s}
  190,                                    ! Wind Direction {deg}
  0,                                      ! Sky Clearness
  0,                                      ! Rain Indicator
  0,                                      ! Snow Indicator
  21,                                     ! Day of Month
  1,                                      ! Month
  WinterDesignDay,                        ! Day Type
  0,                                      ! Daylight Saving Time Indicator
  Wetbulb,                                ! Humidity Indicating Type
  ,                                       ! Humidity Indicating Day Schedule Name
  DefaultMultipliers,                     ! Dry-Bulb Temperature Range Modifier Type
  ,                                       ! Dry-Bulb Temperature Range Modifier Schedule Name
  ASHRAEClearSky;                         ! Solar Model Indicator

OS:ComponentData,
  {df991656-39e6-495d-88ef-98fadc05edeb}, ! Handle
  Component Data 1,                       ! Name
  {72a8f3c2-9085-44ea-b375-3ece9d0ee7c2}, ! UUID
  {a3b6183c-99a9-4408-b25a-05f65d85262a}, ! Version UUID
  1366308124,                             ! Creation Timestamp
  1366308124,                             ! Version Timestamp
  {d7527988-7711-442d-9b64-b8f25c5b9653}; ! Name of Object 1

