
OS:Version,
  {5a047c7b-a3e7-48b7-8dad-93193341b427}, ! Handle
  0.9.3;                                  ! Version Identifier

OS:SizingPeriod:DesignDay,
  {dcd41409-ca6e-4f00-bf9f-83a4dd3b2e28}, ! Handle
  Utica Oneida County Ap Ann Hum_n 99% Condns DP=>MCDB, ! Name
  -16.4,                                  ! Maximum Dry-Bulb Temperature {C}
  0,                                      ! Daily Dry-Bulb Temperature Range {deltaC}
  -22.6,                                  ! Humidity Indicating Conditions at Maximum Dry-Bulb {BasedOnField A3}
  98745,                                  ! Barometric Pressure {Pa}
  3.2,                                    ! Wind Speed {m/s}
  270,                                    ! Wind Direction {deg}
  0,                                      ! Sky Clearness
  0,                                      ! Rain Indicator
  0,                                      ! Snow Indicator
  21,                                     ! Day of Month
  1,                                      ! Month
  WinterDesignDay,                        ! Day Type
  0,                                      ! Daylight Saving Time Indicator
  Dewpoint,                               ! Humidity Indicating Type
  ,                                       ! Humidity Indicating Day Schedule Name
  DefaultMultipliers,                     ! Dry-Bulb Temperature Range Modifier Type
  ,                                       ! Dry-Bulb Temperature Range Modifier Schedule Name
  ASHRAEClearSky;                         ! Solar Model Indicator

OS:ComponentData,
  {f58e05fb-eafc-4e6b-a004-cc5edbb23f9a}, ! Handle
  Component Data 1,                       ! Name
  {7e11942d-e180-4518-a56b-508c20e1c321}, ! UUID
  {9244be5b-2c50-4a5e-9a31-7f0793cbe705}, ! Version UUID
  1366309744,                             ! Creation Timestamp
  1366309744,                             ! Version Timestamp
  {dcd41409-ca6e-4f00-bf9f-83a4dd3b2e28}; ! Name of Object 1

