
OS:Version,
  {04980b80-cae5-4f53-8f4b-1cf58d2d6e94}, ! Handle
  0.9.3;                                  ! Version Identifier

OS:SizingPeriod:DesignDay,
  {6609b1a3-a57f-480d-8d1c-c3d989c7ec20}, ! Handle
  Sault Ste Marie Ann Clg .4% Condns WB=>MDB, ! Name
  26.9,                                   ! Maximum Dry-Bulb Temperature {C}
  11.7,                                   ! Daily Dry-Bulb Temperature Range {deltaC}
  22.5,                                   ! Humidity Indicating Conditions at Maximum Dry-Bulb {BasedOnField A3}
  98698,                                  ! Barometric Pressure {Pa}
  4.2,                                    ! Wind Speed {m/s}
  220,                                    ! Wind Direction {deg}
  0,                                      ! Sky Clearness
  0,                                      ! Rain Indicator
  0,                                      ! Snow Indicator
  21,                                     ! Day of Month
  7,                                      ! Month
  SummerDesignDay,                        ! Day Type
  0,                                      ! Daylight Saving Time Indicator
  Wetbulb,                                ! Humidity Indicating Type
  ,                                       ! Humidity Indicating Day Schedule Name
  DefaultMultipliers,                     ! Dry-Bulb Temperature Range Modifier Type
  ,                                       ! Dry-Bulb Temperature Range Modifier Schedule Name
  ASHRAETau,                              ! Solar Model Indicator
  ,                                       ! Beam Solar Day Schedule Name
  ,                                       ! Diffuse Solar Day Schedule Name
  0.412,                                  ! ASHRAE Taub {dimensionless}
  2.194;                                  ! ASHRAE Taud {dimensionless}

OS:ComponentData,
  {42a918c9-532a-4b37-a89a-caf904e36b1e}, ! Handle
  Component Data 1,                       ! Name
  {c1541513-8aaf-495f-8d3c-c57597a1e2cd}, ! UUID
  {730ff93d-8c82-429e-8e7d-b3a36a4ca7eb}, ! Version UUID
  1366308101,                             ! Creation Timestamp
  1366308101,                             ! Version Timestamp
  {6609b1a3-a57f-480d-8d1c-c3d989c7ec20}; ! Name of Object 1

