
OS:Version,
  {101e0a66-67d9-4f0d-8472-f3e483fdb616}, ! Handle
  0.9.3;                                  ! Version Identifier

OS:SizingPeriod:DesignDay,
  {20977dad-0257-448f-8a27-093697231f1e}, ! Handle
  Philadelphia Ne Philadelphia Ann Clg .4% Condns DB=>MWB, ! Name
  33.9,                                   ! Maximum Dry-Bulb Temperature {C}
  10.3,                                   ! Daily Dry-Bulb Temperature Range {deltaC}
  24.3,                                   ! Humidity Indicating Conditions at Maximum Dry-Bulb {BasedOnField A3}
  100965,                                 ! Barometric Pressure {Pa}
  4.4,                                    ! Wind Speed {m/s}
  300,                                    ! Wind Direction {deg}
  0,                                      ! Sky Clearness
  0,                                      ! Rain Indicator
  0,                                      ! Snow Indicator
  21,                                     ! Day of Month
  7,                                      ! Month
  SummerDesignDay,                        ! Day Type
  0,                                      ! Daylight Saving Time Indicator
  Wetbulb,                                ! Humidity Indicating Type
  ,                                       ! Humidity Indicating Day Schedule Name
  DefaultMultipliers,                     ! Dry-Bulb Temperature Range Modifier Type
  ,                                       ! Dry-Bulb Temperature Range Modifier Schedule Name
  ASHRAETau,                              ! Solar Model Indicator
  ,                                       ! Beam Solar Day Schedule Name
  ,                                       ! Diffuse Solar Day Schedule Name
  0.537,                                  ! ASHRAE Taub {dimensionless}
  1.806;                                  ! ASHRAE Taud {dimensionless}

OS:ComponentData,
  {ce0b7215-dd7d-4ff4-912a-fffb3d220141}, ! Handle
  Component Data 1,                       ! Name
  {3a626a03-6e44-42f1-bbc1-aedca4d6f23f}, ! UUID
  {4b08fec4-4642-40b8-90bd-88a9c9f50bce}, ! Version UUID
  1366310207,                             ! Creation Timestamp
  1366310207,                             ! Version Timestamp
  {20977dad-0257-448f-8a27-093697231f1e}; ! Name of Object 1

