
OS:Version,
  {57d126e6-45aa-4f7e-b6cd-c72fc57d3880}, ! Handle
  0.9.3;                                  ! Version Identifier

OS:SizingPeriod:DesignDay,
  {f4fd6c6d-cc75-4869-9376-49fa29a14b64}, ! Handle
  Peoria Greater Peoria Ap Ann Hum_n 99.6% Condns DP=>MCDB, ! Name
  -19,                                    ! Maximum Dry-Bulb Temperature {C}
  0,                                      ! Daily Dry-Bulb Temperature Range {deltaC}
  -24.4,                                  ! Humidity Indicating Conditions at Maximum Dry-Bulb {BasedOnField A3}
  98957,                                  ! Barometric Pressure {Pa}
  4,                                      ! Wind Speed {m/s}
  280,                                    ! Wind Direction {deg}
  0,                                      ! Sky Clearness
  0,                                      ! Rain Indicator
  0,                                      ! Snow Indicator
  21,                                     ! Day of Month
  1,                                      ! Month
  WinterDesignDay,                        ! Day Type
  0,                                      ! Daylight Saving Time Indicator
  Dewpoint,                               ! Humidity Indicating Type
  ,                                       ! Humidity Indicating Day Schedule Name
  DefaultMultipliers,                     ! Dry-Bulb Temperature Range Modifier Type
  ,                                       ! Dry-Bulb Temperature Range Modifier Schedule Name
  ASHRAEClearSky;                         ! Solar Model Indicator

OS:ComponentData,
  {6f926672-1eb8-42d5-8a33-2c0100394c45}, ! Handle
  Component Data 1,                       ! Name
  {c2b30502-6097-4ed9-a11b-b62f62027563}, ! UUID
  {2f222cda-22a2-4a88-889b-dd22207f37fb}, ! Version UUID
  1366307380,                             ! Creation Timestamp
  1366307380,                             ! Version Timestamp
  {f4fd6c6d-cc75-4869-9376-49fa29a14b64}; ! Name of Object 1

