
OS:Version,
  {374a6d10-42aa-49ff-9d7f-86feaad5b9a7}, ! Handle
  0.9.3;                                  ! Version Identifier

OS:SizingPeriod:DesignDay,
  {f6ddedb3-f5ec-4a2c-b9da-97c54431bcae}, ! Handle
  Sanford Muni  Awos Ann Clg 2% Condns DB=>MWB, ! Name
  27.7,                                   ! Maximum Dry-Bulb Temperature {C}
  12.6,                                   ! Daily Dry-Bulb Temperature Range {deltaC}
  19.7,                                   ! Humidity Indicating Conditions at Maximum Dry-Bulb {BasedOnField A3}
  100439,                                 ! Barometric Pressure {Pa}
  3.9,                                    ! Wind Speed {m/s}
  230,                                    ! Wind Direction {deg}
  0,                                      ! Sky Clearness
  0,                                      ! Rain Indicator
  0,                                      ! Snow Indicator
  21,                                     ! Day of Month
  7,                                      ! Month
  SummerDesignDay,                        ! Day Type
  0,                                      ! Daylight Saving Time Indicator
  Wetbulb,                                ! Humidity Indicating Type
  ,                                       ! Humidity Indicating Day Schedule Name
  DefaultMultipliers,                     ! Dry-Bulb Temperature Range Modifier Type
  ,                                       ! Dry-Bulb Temperature Range Modifier Schedule Name
  ASHRAETau,                              ! Solar Model Indicator
  ,                                       ! Beam Solar Day Schedule Name
  ,                                       ! Diffuse Solar Day Schedule Name
  0.471,                                  ! ASHRAE Taub {dimensionless}
  1.98;                                   ! ASHRAE Taud {dimensionless}

