
OS:Version,
  {eb8d0322-ef9d-4976-946c-855bdff8487e}, ! Handle
  0.9.3;                                  ! Version Identifier

OS:SizingPeriod:DesignDay,
  {778b32e5-ef82-4c9a-8a31-243afb638082}, ! Handle
  MANSFIELD Ann Clg .4% Condns DB=>MWB,   ! Name
  31.1,                                   ! Maximum Dry-Bulb Temperature {C}
  10.3,                                   ! Daily Dry-Bulb Temperature Range {deltaC}
  22.8,                                   ! Humidity Indicating Conditions at Maximum Dry-Bulb {BasedOnField A3}
  96669,                                  ! Barometric Pressure {Pa}
  4.7,                                    ! Wind Speed {m/s}
  230,                                    ! Wind Direction {deg}
  0,                                      ! Sky Clearness
  0,                                      ! Rain Indicator
  0,                                      ! Snow Indicator
  21,                                     ! Day of Month
  7,                                      ! Month
  SummerDesignDay,                        ! Day Type
  0,                                      ! Daylight Saving Time Indicator
  Wetbulb,                                ! Humidity Indicating Type
  ,                                       ! Humidity Indicating Day Schedule Name
  DefaultMultipliers,                     ! Dry-Bulb Temperature Range Modifier Type
  ,                                       ! Dry-Bulb Temperature Range Modifier Schedule Name
  ASHRAETau,                              ! Solar Model Indicator
  ,                                       ! Beam Solar Day Schedule Name
  ,                                       ! Diffuse Solar Day Schedule Name
  0.456,                                  ! ASHRAE Taub {dimensionless}
  2.029;                                  ! ASHRAE Taud {dimensionless}

OS:ComponentData,
  {9c54ff71-6880-4be8-89bd-222984137a24}, ! Handle
  Component Data 1,                       ! Name
  {9c31d362-f5d8-49b4-a249-f5baab8b4019}, ! UUID
  {3ee409d3-4f42-4085-ac44-45c481f8fec7}, ! Version UUID
  1366309835,                             ! Creation Timestamp
  1366309835,                             ! Version Timestamp
  {778b32e5-ef82-4c9a-8a31-243afb638082}; ! Name of Object 1

