
OS:Version,
  {eaa03f30-a2a5-4afe-a813-e7950f8712c1}, ! Handle
  0.9.3;                                  ! Version Identifier

OS:SizingPeriod:DesignDay,
  {409c79f4-2dff-4f2c-889f-bbca769b76c0}, ! Handle
  Waco Ann Clg .4% Condns DP=>MDB,        ! Name
  28,                                     ! Maximum Dry-Bulb Temperature {C}
  11.9,                                   ! Daily Dry-Bulb Temperature Range {deltaC}
  24.3,                                   ! Humidity Indicating Conditions at Maximum Dry-Bulb {BasedOnField A3}
  99477,                                  ! Barometric Pressure {Pa}
  4.9,                                    ! Wind Speed {m/s}
  180,                                    ! Wind Direction {deg}
  0,                                      ! Sky Clearness
  0,                                      ! Rain Indicator
  0,                                      ! Snow Indicator
  21,                                     ! Day of Month
  7,                                      ! Month
  SummerDesignDay,                        ! Day Type
  0,                                      ! Daylight Saving Time Indicator
  Dewpoint,                               ! Humidity Indicating Type
  ,                                       ! Humidity Indicating Day Schedule Name
  DefaultMultipliers,                     ! Dry-Bulb Temperature Range Modifier Type
  ,                                       ! Dry-Bulb Temperature Range Modifier Schedule Name
  ASHRAETau,                              ! Solar Model Indicator
  ,                                       ! Beam Solar Day Schedule Name
  ,                                       ! Diffuse Solar Day Schedule Name
  0.46,                                   ! ASHRAE Taub {dimensionless}
  2.098;                                  ! ASHRAE Taud {dimensionless}

OS:ComponentData,
  {53673b87-7aac-4375-a594-2313ca80d4cc}, ! Handle
  Component Data 1,                       ! Name
  {19b389b8-104a-4a99-a2cd-ec39c2ba4293}, ! UUID
  {7d32a792-a4f8-4834-a221-8cef2c434ca7}, ! Version UUID
  1366310920,                             ! Creation Timestamp
  1366310920,                             ! Version Timestamp
  {409c79f4-2dff-4f2c-889f-bbca769b76c0}; ! Name of Object 1

