
OS:Version,
  {f5be2b9c-15a0-4f75-8656-f624f6de0543}, ! Handle
  0.9.3;                                  ! Version Identifier

OS:SizingPeriod:DesignDay,
  {5d0939d2-ab9d-4eee-809f-d9e03c57cc97}, ! Handle
  Mankato Awos Ann Clg .4% Condns Enth=>MDB, ! Name
  29,                                     ! Maximum Dry-Bulb Temperature {C}
  9.4,                                    ! Daily Dry-Bulb Temperature Range {deltaC}
  77200,                                  ! Humidity Indicating Conditions at Maximum Dry-Bulb {BasedOnField A3}
  97644,                                  ! Barometric Pressure {Pa}
  6.1,                                    ! Wind Speed {m/s}
  190,                                    ! Wind Direction {deg}
  0,                                      ! Sky Clearness
  0,                                      ! Rain Indicator
  0,                                      ! Snow Indicator
  21,                                     ! Day of Month
  7,                                      ! Month
  SummerDesignDay,                        ! Day Type
  0,                                      ! Daylight Saving Time Indicator
  Enthalpy,                               ! Humidity Indicating Type
  ,                                       ! Humidity Indicating Day Schedule Name
  DefaultMultipliers,                     ! Dry-Bulb Temperature Range Modifier Type
  ,                                       ! Dry-Bulb Temperature Range Modifier Schedule Name
  ASHRAETau,                              ! Solar Model Indicator
  ,                                       ! Beam Solar Day Schedule Name
  ,                                       ! Diffuse Solar Day Schedule Name
  0.411,                                  ! ASHRAE Taub {dimensionless}
  2.205;                                  ! ASHRAE Taud {dimensionless}

OS:ComponentData,
  {43bb051c-97ef-4d20-8464-308364f035a5}, ! Handle
  Component Data 1,                       ! Name
  {2b6b7738-71f3-4797-a919-b6b1a8d6ca7d}, ! UUID
  {e24f2b05-c8c1-4c08-aab6-dd2a230fb694}, ! Version UUID
  1366308295,                             ! Creation Timestamp
  1366308295,                             ! Version Timestamp
  {5d0939d2-ab9d-4eee-809f-d9e03c57cc97}; ! Name of Object 1

