
OS:Version,
  {4875add5-7937-4b3a-9c26-10b72d82a6d2}, ! Handle
  0.9.3;                                  ! Version Identifier

OS:SizingPeriod:DesignDay,
  {751682a4-c84f-4b8b-82bd-cd7947febddd}, ! Handle
  Morris Muni  Awos Ann Clg .4% Condns DP=>MDB, ! Name
  27.9,                                   ! Maximum Dry-Bulb Temperature {C}
  11.1,                                   ! Daily Dry-Bulb Temperature Range {deltaC}
  24.1,                                   ! Humidity Indicating Conditions at Maximum Dry-Bulb {BasedOnField A3}
  97260,                                  ! Barometric Pressure {Pa}
  5.9,                                    ! Wind Speed {m/s}
  160,                                    ! Wind Direction {deg}
  0,                                      ! Sky Clearness
  0,                                      ! Rain Indicator
  0,                                      ! Snow Indicator
  21,                                     ! Day of Month
  7,                                      ! Month
  SummerDesignDay,                        ! Day Type
  0,                                      ! Daylight Saving Time Indicator
  Dewpoint,                               ! Humidity Indicating Type
  ,                                       ! Humidity Indicating Day Schedule Name
  DefaultMultipliers,                     ! Dry-Bulb Temperature Range Modifier Type
  ,                                       ! Dry-Bulb Temperature Range Modifier Schedule Name
  ASHRAETau,                              ! Solar Model Indicator
  ,                                       ! Beam Solar Day Schedule Name
  ,                                       ! Diffuse Solar Day Schedule Name
  0.394,                                  ! ASHRAE Taub {dimensionless}
  2.261;                                  ! ASHRAE Taud {dimensionless}

OS:ComponentData,
  {03406976-d867-4255-b84f-e8638ab3a94c}, ! Handle
  Component Data 1,                       ! Name
  {083d0dc3-3eaf-4390-82cb-67db77e3ad26}, ! UUID
  {50e56ef2-af89-4be6-8b4a-267793e1d496}, ! Version UUID
  1366308336,                             ! Creation Timestamp
  1366308336,                             ! Version Timestamp
  {751682a4-c84f-4b8b-82bd-cd7947febddd}; ! Name of Object 1

