
OS:Version,
  {43944247-2649-4dc8-9e94-d167e7091c22}, ! Handle
  0.9.3;                                  ! Version Identifier

OS:SizingPeriod:DesignDay,
  {ed47648d-eb2e-49e9-92c8-9e9d0ffbf1d8}, ! Handle
  Modesto City County Ap Ann Htg Wind 99.6% Condns WS=>MCDB, ! Name
  10.5,                                   ! Maximum Dry-Bulb Temperature {C}
  0,                                      ! Daily Dry-Bulb Temperature Range {deltaC}
  10.5,                                   ! Humidity Indicating Conditions at Maximum Dry-Bulb {BasedOnField A3}
  100965,                                 ! Barometric Pressure {Pa}
  9,                                      ! Wind Speed {m/s}
  120,                                    ! Wind Direction {deg}
  0,                                      ! Sky Clearness
  0,                                      ! Rain Indicator
  0,                                      ! Snow Indicator
  21,                                     ! Day of Month
  1,                                      ! Month
  WinterDesignDay,                        ! Day Type
  0,                                      ! Daylight Saving Time Indicator
  Wetbulb,                                ! Humidity Indicating Type
  ,                                       ! Humidity Indicating Day Schedule Name
  DefaultMultipliers,                     ! Dry-Bulb Temperature Range Modifier Type
  ,                                       ! Dry-Bulb Temperature Range Modifier Schedule Name
  ASHRAEClearSky;                         ! Solar Model Indicator

OS:ComponentData,
  {534c167c-e837-4303-be43-024d9cb68230}, ! Handle
  Component Data 1,                       ! Name
  {b1522484-526e-44c1-89ca-0b5aa8d974ce}, ! UUID
  {628c60c6-eeca-4155-b2c7-34b5b8dbc67c}, ! Version UUID
  1366306490,                             ! Creation Timestamp
  1366306490,                             ! Version Timestamp
  {ed47648d-eb2e-49e9-92c8-9e9d0ffbf1d8}; ! Name of Object 1

