
OS:Version,
  {5ea95f6e-28e1-4500-90c7-d3dc68d1dc68}, ! Handle
  0.9.3;                                  ! Version Identifier

OS:SizingPeriod:DesignDay,
  {aa64b473-e088-4078-9116-cd1b81c6fe8d}, ! Handle
  Richmond Ann Clg .4% Condns Enth=>MDB,  ! Name
  32,                                     ! Maximum Dry-Bulb Temperature {C}
  10.4,                                   ! Daily Dry-Bulb Temperature Range {deltaC}
  80200,                                  ! Humidity Indicating Conditions at Maximum Dry-Bulb {BasedOnField A3}
  100678,                                 ! Barometric Pressure {Pa}
  4.5,                                    ! Wind Speed {m/s}
  230,                                    ! Wind Direction {deg}
  0,                                      ! Sky Clearness
  0,                                      ! Rain Indicator
  0,                                      ! Snow Indicator
  21,                                     ! Day of Month
  7,                                      ! Month
  SummerDesignDay,                        ! Day Type
  0,                                      ! Daylight Saving Time Indicator
  Enthalpy,                               ! Humidity Indicating Type
  ,                                       ! Humidity Indicating Day Schedule Name
  DefaultMultipliers,                     ! Dry-Bulb Temperature Range Modifier Type
  ,                                       ! Dry-Bulb Temperature Range Modifier Schedule Name
  ASHRAETau,                              ! Solar Model Indicator
  ,                                       ! Beam Solar Day Schedule Name
  ,                                       ! Diffuse Solar Day Schedule Name
  0.567,                                  ! ASHRAE Taub {dimensionless}
  1.742;                                  ! ASHRAE Taud {dimensionless}

OS:ComponentData,
  {54c9c18e-1312-4a32-b0ca-777a736fbf44}, ! Handle
  Component Data 1,                       ! Name
  {73344429-ae35-404d-bdf3-cb734a66a25c}, ! UUID
  {7b5065bf-6b9c-406f-9c8c-5dd5bf848c40}, ! Version UUID
  1366311170,                             ! Creation Timestamp
  1366311170,                             ! Version Timestamp
  {aa64b473-e088-4078-9116-cd1b81c6fe8d}; ! Name of Object 1

