
OS:Version,
  {f5095014-145f-44a9-abee-4ee6c81536da}, ! Handle
  0.9.3;                                  ! Version Identifier

OS:SizingPeriod:DesignDay,
  {696dcc31-967f-4b36-b97f-d1626c13fd0c}, ! Handle
  San Diego North Island Nas Ann Clg .4% Condns WB=>MDB, ! Name
  25.2,                                   ! Maximum Dry-Bulb Temperature {C}
  4.4,                                    ! Daily Dry-Bulb Temperature Range {deltaC}
  22,                                     ! Humidity Indicating Conditions at Maximum Dry-Bulb {BasedOnField A3}
  101145,                                 ! Barometric Pressure {Pa}
  3.9,                                    ! Wind Speed {m/s}
  310,                                    ! Wind Direction {deg}
  0,                                      ! Sky Clearness
  0,                                      ! Rain Indicator
  0,                                      ! Snow Indicator
  21,                                     ! Day of Month
  8,                                      ! Month
  SummerDesignDay,                        ! Day Type
  0,                                      ! Daylight Saving Time Indicator
  Wetbulb,                                ! Humidity Indicating Type
  ,                                       ! Humidity Indicating Day Schedule Name
  DefaultMultipliers,                     ! Dry-Bulb Temperature Range Modifier Type
  ,                                       ! Dry-Bulb Temperature Range Modifier Schedule Name
  ASHRAETau,                              ! Solar Model Indicator
  ,                                       ! Beam Solar Day Schedule Name
  ,                                       ! Diffuse Solar Day Schedule Name
  0.425,                                  ! ASHRAE Taub {dimensionless}
  2.218;                                  ! ASHRAE Taud {dimensionless}

OS:ComponentData,
  {2d0c8cac-6ecc-4de8-89ad-90e862212f27}, ! Handle
  Component Data 1,                       ! Name
  {5df1e773-b5fc-4ecc-ad10-f6a142f0566c}, ! UUID
  {cb8f4c65-dc7f-42b0-9c7e-cea6a1df0dda}, ! Version UUID
  1366306583,                             ! Creation Timestamp
  1366306583,                             ! Version Timestamp
  {696dcc31-967f-4b36-b97f-d1626c13fd0c}; ! Name of Object 1

