
OS:Version,
  {e80fbe8d-2c48-4223-ab79-b3c316f3d476}, ! Handle
  0.9.3;                                  ! Version Identifier

OS:SizingPeriod:DesignDay,
  {c2832621-f64b-4e5d-bd5d-71be8515c1d5}, ! Handle
  Texarkana Webb Field Ann Clg .4% Condns DB=>MWB, ! Name
  36.9,                                   ! Maximum Dry-Bulb Temperature {C}
  10.7,                                   ! Daily Dry-Bulb Temperature Range {deltaC}
  24.6,                                   ! Humidity Indicating Conditions at Maximum Dry-Bulb {BasedOnField A3}
  100011,                                 ! Barometric Pressure {Pa}
  3.4,                                    ! Wind Speed {m/s}
  190,                                    ! Wind Direction {deg}
  0,                                      ! Sky Clearness
  0,                                      ! Rain Indicator
  0,                                      ! Snow Indicator
  21,                                     ! Day of Month
  7,                                      ! Month
  SummerDesignDay,                        ! Day Type
  0,                                      ! Daylight Saving Time Indicator
  Wetbulb,                                ! Humidity Indicating Type
  ,                                       ! Humidity Indicating Day Schedule Name
  DefaultMultipliers,                     ! Dry-Bulb Temperature Range Modifier Type
  ,                                       ! Dry-Bulb Temperature Range Modifier Schedule Name
  ASHRAETau,                              ! Solar Model Indicator
  ,                                       ! Beam Solar Day Schedule Name
  ,                                       ! Diffuse Solar Day Schedule Name
  0.486,                                  ! ASHRAE Taub {dimensionless}
  2.004;                                  ! ASHRAE Taud {dimensionless}

OS:ComponentData,
  {f9ec1d19-c51c-4811-982b-abe92e04bc20}, ! Handle
  Component Data 1,                       ! Name
  {89b3be5e-de85-4f50-b4c1-37db1c75d7e4}, ! UUID
  {cc5e88b0-af6d-455c-9c7b-7a02482e0b8f}, ! Version UUID
  1366306254,                             ! Creation Timestamp
  1366306254,                             ! Version Timestamp
  {c2832621-f64b-4e5d-bd5d-71be8515c1d5}; ! Name of Object 1

