
OS:Version,
  {50b66e93-2ea3-41c7-8a62-fea299a13ce0}, ! Handle
  0.9.3;                                  ! Version Identifier

OS:SizingPeriod:DesignDay,
  {c1496ae4-a229-4090-b35b-d092bdd95f5f}, ! Handle
  Mora Muni  Awos Ann Htg Wind 99.6% Condns WS=>MCDB, ! Name
  -9.4,                                   ! Maximum Dry-Bulb Temperature {C}
  0,                                      ! Daily Dry-Bulb Temperature Range {deltaC}
  -9.4,                                   ! Humidity Indicating Conditions at Maximum Dry-Bulb {BasedOnField A3}
  97668,                                  ! Barometric Pressure {Pa}
  9.5,                                    ! Wind Speed {m/s}
  320,                                    ! Wind Direction {deg}
  0,                                      ! Sky Clearness
  0,                                      ! Rain Indicator
  0,                                      ! Snow Indicator
  21,                                     ! Day of Month
  1,                                      ! Month
  WinterDesignDay,                        ! Day Type
  0,                                      ! Daylight Saving Time Indicator
  Wetbulb,                                ! Humidity Indicating Type
  ,                                       ! Humidity Indicating Day Schedule Name
  DefaultMultipliers,                     ! Dry-Bulb Temperature Range Modifier Type
  ,                                       ! Dry-Bulb Temperature Range Modifier Schedule Name
  ASHRAEClearSky;                         ! Solar Model Indicator

OS:ComponentData,
  {b92b5b6a-5a73-438b-8eee-1c61a59c7a0d}, ! Handle
  Component Data 1,                       ! Name
  {2fc54a86-3763-499f-a392-4adce0d56ee8}, ! UUID
  {b9f8342b-ebce-4b63-8581-b5e235d2b1cf}, ! Version UUID
  1366308329,                             ! Creation Timestamp
  1366308329,                             ! Version Timestamp
  {c1496ae4-a229-4090-b35b-d092bdd95f5f}; ! Name of Object 1

