
OS:Version,
  {9df67688-de3d-4b25-81ca-6cde6116ab9a}, ! Handle
  0.9.3;                                  ! Version Identifier

OS:SizingPeriod:DesignDay,
  {6a5080c1-1e69-4871-8b53-d9edfd0781c4}, ! Handle
  Mason City Municipal Arpt Ann Clg 1% Condns Enth=>MDB, ! Name
  29.3,                                   ! Maximum Dry-Bulb Temperature {C}
  11.5,                                   ! Daily Dry-Bulb Temperature Range {deltaC}
  76000,                                  ! Humidity Indicating Conditions at Maximum Dry-Bulb {BasedOnField A3}
  97028,                                  ! Barometric Pressure {Pa}
  6.4,                                    ! Wind Speed {m/s}
  200,                                    ! Wind Direction {deg}
  0,                                      ! Sky Clearness
  0,                                      ! Rain Indicator
  0,                                      ! Snow Indicator
  21,                                     ! Day of Month
  7,                                      ! Month
  SummerDesignDay,                        ! Day Type
  0,                                      ! Daylight Saving Time Indicator
  Enthalpy,                               ! Humidity Indicating Type
  ,                                       ! Humidity Indicating Day Schedule Name
  DefaultMultipliers,                     ! Dry-Bulb Temperature Range Modifier Type
  ,                                       ! Dry-Bulb Temperature Range Modifier Schedule Name
  ASHRAETau,                              ! Solar Model Indicator
  ,                                       ! Beam Solar Day Schedule Name
  ,                                       ! Diffuse Solar Day Schedule Name
  0.409,                                  ! ASHRAE Taub {dimensionless}
  2.21;                                   ! ASHRAE Taud {dimensionless}

OS:ComponentData,
  {7540201c-d4c8-4ff9-bfea-0217e963e3d6}, ! Handle
  Component Data 1,                       ! Name
  {e8a8e788-65f6-49ce-abed-40580bc0b754}, ! UUID
  {c278030c-e6dc-44fc-bf43-cdbf2d7d1b37}, ! Version UUID
  1366307218,                             ! Creation Timestamp
  1366307218,                             ! Version Timestamp
  {6a5080c1-1e69-4871-8b53-d9edfd0781c4}; ! Name of Object 1

