
OS:Version,
  {9e0f3d72-c93c-4832-8279-0072cbb5b06d}, ! Handle
  0.9.3;                                  ! Version Identifier

OS:SizingPeriod:DesignDay,
  {c1a9c502-50a5-4773-96f2-a1f972109590}, ! Handle
  Page Muni  Amos Ann Clg 2% Condns WB=>MDB, ! Name
  29.8,                                   ! Maximum Dry-Bulb Temperature {C}
  13.2,                                   ! Daily Dry-Bulb Temperature Range {deltaC}
  18.1,                                   ! Humidity Indicating Conditions at Maximum Dry-Bulb {BasedOnField A3}
  86610,                                  ! Barometric Pressure {Pa}
  3.2,                                    ! Wind Speed {m/s}
  350,                                    ! Wind Direction {deg}
  0,                                      ! Sky Clearness
  0,                                      ! Rain Indicator
  0,                                      ! Snow Indicator
  21,                                     ! Day of Month
  7,                                      ! Month
  SummerDesignDay,                        ! Day Type
  0,                                      ! Daylight Saving Time Indicator
  Wetbulb,                                ! Humidity Indicating Type
  ,                                       ! Humidity Indicating Day Schedule Name
  DefaultMultipliers,                     ! Dry-Bulb Temperature Range Modifier Type
  ,                                       ! Dry-Bulb Temperature Range Modifier Schedule Name
  ASHRAETau,                              ! Solar Model Indicator
  ,                                       ! Beam Solar Day Schedule Name
  ,                                       ! Diffuse Solar Day Schedule Name
  0.414,                                  ! ASHRAE Taub {dimensionless}
  2.049;                                  ! ASHRAE Taud {dimensionless}

OS:ComponentData,
  {e4b5ef66-c219-4882-9c64-70cffb92dc6e}, ! Handle
  Component Data 1,                       ! Name
  {ad6cfeee-13fa-4413-9fd6-0f8012c10be1}, ! UUID
  {8a1bf2d1-5025-461b-a639-263a1355727f}, ! Version UUID
  1366306289,                             ! Creation Timestamp
  1366306289,                             ! Version Timestamp
  {c1a9c502-50a5-4773-96f2-a1f972109590}; ! Name of Object 1

