
OS:Version,
  {8dbd4c21-fcc5-4013-a911-7ce8ffef9f10}, ! Handle
  0.9.3;                                  ! Version Identifier

OS:SizingPeriod:DesignDay,
  {7aa144a0-7ba3-477d-b825-aae7cdb2d107}, ! Handle
  WATERLOO Ann Hum_n 99.6% Condns DP=>MCDB, ! Name
  -24.7,                                  ! Maximum Dry-Bulb Temperature {C}
  0,                                      ! Daily Dry-Bulb Temperature Range {deltaC}
  -29.1,                                  ! Humidity Indicating Conditions at Maximum Dry-Bulb {BasedOnField A3}
  98182,                                  ! Barometric Pressure {Pa}
  3.9,                                    ! Wind Speed {m/s}
  310,                                    ! Wind Direction {deg}
  0,                                      ! Sky Clearness
  0,                                      ! Rain Indicator
  0,                                      ! Snow Indicator
  21,                                     ! Day of Month
  1,                                      ! Month
  WinterDesignDay,                        ! Day Type
  0,                                      ! Daylight Saving Time Indicator
  Dewpoint,                               ! Humidity Indicating Type
  ,                                       ! Humidity Indicating Day Schedule Name
  DefaultMultipliers,                     ! Dry-Bulb Temperature Range Modifier Type
  ,                                       ! Dry-Bulb Temperature Range Modifier Schedule Name
  ASHRAEClearSky;                         ! Solar Model Indicator

OS:ComponentData,
  {226b9b3a-a32e-4d47-89a2-343887baa6d5}, ! Handle
  Component Data 1,                       ! Name
  {a069b775-0a1c-4c9c-9eaf-61330b6fa2b1}, ! UUID
  {12188e58-c5e1-4ede-8154-1a322fd368c6}, ! Version UUID
  1366307251,                             ! Creation Timestamp
  1366307251,                             ! Version Timestamp
  {7aa144a0-7ba3-477d-b825-aae7cdb2d107}; ! Name of Object 1

