
OS:Version,
  {a50cd39a-438d-43bc-ae39-3b1d116865c4}, ! Handle
  0.9.3;                                  ! Version Identifier

OS:SizingPeriod:DesignDay,
  {7bac9c6b-334e-4f78-ba07-854897f85ee6}, ! Handle
  Nome Ann Htg 99% Condns DB,             ! Name
  -31.2,                                  ! Maximum Dry-Bulb Temperature {C}
  0,                                      ! Daily Dry-Bulb Temperature Range {deltaC}
  -31.2,                                  ! Humidity Indicating Conditions at Maximum Dry-Bulb {BasedOnField A3}
  101241,                                 ! Barometric Pressure {Pa}
  1.1,                                    ! Wind Speed {m/s}
  10,                                     ! Wind Direction {deg}
  0,                                      ! Sky Clearness
  0,                                      ! Rain Indicator
  0,                                      ! Snow Indicator
  21,                                     ! Day of Month
  1,                                      ! Month
  WinterDesignDay,                        ! Day Type
  0,                                      ! Daylight Saving Time Indicator
  Wetbulb,                                ! Humidity Indicating Type
  ,                                       ! Humidity Indicating Day Schedule Name
  DefaultMultipliers,                     ! Dry-Bulb Temperature Range Modifier Type
  ,                                       ! Dry-Bulb Temperature Range Modifier Schedule Name
  ASHRAEClearSky;                         ! Solar Model Indicator

OS:ComponentData,
  {1095233f-0e14-45d6-8259-abf549ca6caf}, ! Handle
  Component Data 1,                       ! Name
  {82684a97-35bb-45b4-92bd-d47988dee4c8}, ! UUID
  {b9ede51f-dac1-4cc6-98fb-698cb4374f8e}, ! Version UUID
  1366305452,                             ! Creation Timestamp
  1366305452,                             ! Version Timestamp
  {7bac9c6b-334e-4f78-ba07-854897f85ee6}; ! Name of Object 1

