
OS:Version,
  {78cf5fdd-0d1e-4967-881e-baf5ffede788}, ! Handle
  0.9.3;                                  ! Version Identifier

OS:SizingPeriod:DesignDay,
  {4a398c76-3339-4250-95fb-9e2ef9e9031f}, ! Handle
  Oceana Nas Ann Htg Wind 99.6% Condns WS=>MCDB, ! Name
  4,                                      ! Maximum Dry-Bulb Temperature {C}
  0,                                      ! Daily Dry-Bulb Temperature Range {deltaC}
  4,                                      ! Humidity Indicating Conditions at Maximum Dry-Bulb {BasedOnField A3}
  101229,                                 ! Barometric Pressure {Pa}
  12.4,                                   ! Wind Speed {m/s}
  0,                                      ! Wind Direction {deg}
  0,                                      ! Sky Clearness
  0,                                      ! Rain Indicator
  0,                                      ! Snow Indicator
  21,                                     ! Day of Month
  1,                                      ! Month
  WinterDesignDay,                        ! Day Type
  0,                                      ! Daylight Saving Time Indicator
  Wetbulb,                                ! Humidity Indicating Type
  ,                                       ! Humidity Indicating Day Schedule Name
  DefaultMultipliers,                     ! Dry-Bulb Temperature Range Modifier Type
  ,                                       ! Dry-Bulb Temperature Range Modifier Schedule Name
  ASHRAEClearSky;                         ! Solar Model Indicator

OS:ComponentData,
  {3ccdf8e9-87b4-47c5-8d74-c33598885487}, ! Handle
  Component Data 1,                       ! Name
  {a5df8f0d-3367-403e-8482-d67901a266b1}, ! UUID
  {ea1321ef-f864-49cc-abfe-606c8595c785}, ! Version UUID
  1366311144,                             ! Creation Timestamp
  1366311144,                             ! Version Timestamp
  {4a398c76-3339-4250-95fb-9e2ef9e9031f}; ! Name of Object 1

