
OS:Version,
  {bb753684-44cb-47f4-b5da-d853694669f4}, ! Handle
  0.9.3;                                  ! Version Identifier

OS:SizingPeriod:DesignDay,
  {21acdc57-fe06-4bb3-aed8-17445fe25e49}, ! Handle
  Patuxent River Nas Ann Clg .4% Condns DB=>MWB, ! Name
  33.6,                                   ! Maximum Dry-Bulb Temperature {C}
  8.6,                                    ! Daily Dry-Bulb Temperature Range {deltaC}
  24.5,                                   ! Humidity Indicating Conditions at Maximum Dry-Bulb {BasedOnField A3}
  101157,                                 ! Barometric Pressure {Pa}
  3.9,                                    ! Wind Speed {m/s}
  250,                                    ! Wind Direction {deg}
  0,                                      ! Sky Clearness
  0,                                      ! Rain Indicator
  0,                                      ! Snow Indicator
  21,                                     ! Day of Month
  7,                                      ! Month
  SummerDesignDay,                        ! Day Type
  0,                                      ! Daylight Saving Time Indicator
  Wetbulb,                                ! Humidity Indicating Type
  ,                                       ! Humidity Indicating Day Schedule Name
  DefaultMultipliers,                     ! Dry-Bulb Temperature Range Modifier Type
  ,                                       ! Dry-Bulb Temperature Range Modifier Schedule Name
  ASHRAETau,                              ! Solar Model Indicator
  ,                                       ! Beam Solar Day Schedule Name
  ,                                       ! Diffuse Solar Day Schedule Name
  0.592,                                  ! ASHRAE Taub {dimensionless}
  1.683;                                  ! ASHRAE Taud {dimensionless}

OS:ComponentData,
  {823cd58a-9c7e-4dab-8fdd-7c6cf6971ac8}, ! Handle
  Component Data 1,                       ! Name
  {6aa4091b-e999-48e1-ae96-fcf757fd117e}, ! UUID
  {90086bdb-a91d-44d2-abf0-e509ee2a9b0d}, ! Version UUID
  1366307857,                             ! Creation Timestamp
  1366307857,                             ! Version Timestamp
  {21acdc57-fe06-4bb3-aed8-17445fe25e49}; ! Name of Object 1

