
OS:Version,
  {3e4b3953-6a38-4a04-b0bf-4307c4c366f3}, ! Handle
  0.9.3;                                  ! Version Identifier

OS:SizingPeriod:DesignDay,
  {617fbc2b-0231-4415-8674-d9cce71e9d89}, ! Handle
  Tekamah  Asos Ann Htg Wind 99.6% Condns WS=>MCDB, ! Name
  -8.6,                                   ! Maximum Dry-Bulb Temperature {C}
  0,                                      ! Daily Dry-Bulb Temperature Range {deltaC}
  -8.6,                                   ! Humidity Indicating Conditions at Maximum Dry-Bulb {BasedOnField A3}
  97633,                                  ! Barometric Pressure {Pa}
  15.6,                                   ! Wind Speed {m/s}
  320,                                    ! Wind Direction {deg}
  0,                                      ! Sky Clearness
  0,                                      ! Rain Indicator
  0,                                      ! Snow Indicator
  21,                                     ! Day of Month
  1,                                      ! Month
  WinterDesignDay,                        ! Day Type
  0,                                      ! Daylight Saving Time Indicator
  Wetbulb,                                ! Humidity Indicating Type
  ,                                       ! Humidity Indicating Day Schedule Name
  DefaultMultipliers,                     ! Dry-Bulb Temperature Range Modifier Type
  ,                                       ! Dry-Bulb Temperature Range Modifier Schedule Name
  ASHRAEClearSky;                         ! Solar Model Indicator

OS:ComponentData,
  {d19e5477-3bc4-442d-a1af-33dbd3890b57}, ! Handle
  Component Data 1,                       ! Name
  {5fe5ba23-78f2-4c07-ae6e-efc14b9e173d}, ! UUID
  {c55f07f6-3974-415b-9797-ff33b04f1a9c}, ! Version UUID
  1366309206,                             ! Creation Timestamp
  1366309206,                             ! Version Timestamp
  {617fbc2b-0231-4415-8674-d9cce71e9d89}; ! Name of Object 1

