
OS:Version,
  {8c6643c2-40c3-4214-b34f-55b09f2e72b5}, ! Handle
  0.9.3;                                  ! Version Identifier

OS:SizingPeriod:DesignDay,
  {b45649ff-a301-43d7-918c-d46d914209a0}, ! Handle
  MILES_CITY Ann Clg .4% Condns Enth=>MDB, ! Name
  31.7,                                   ! Maximum Dry-Bulb Temperature {C}
  14.9,                                   ! Daily Dry-Bulb Temperature Range {deltaC}
  64300,                                  ! Humidity Indicating Conditions at Maximum Dry-Bulb {BasedOnField A3}
  92043,                                  ! Barometric Pressure {Pa}
  4.7,                                    ! Wind Speed {m/s}
  140,                                    ! Wind Direction {deg}
  0,                                      ! Sky Clearness
  0,                                      ! Rain Indicator
  0,                                      ! Snow Indicator
  21,                                     ! Day of Month
  7,                                      ! Month
  SummerDesignDay,                        ! Day Type
  0,                                      ! Daylight Saving Time Indicator
  Enthalpy,                               ! Humidity Indicating Type
  ,                                       ! Humidity Indicating Day Schedule Name
  DefaultMultipliers,                     ! Dry-Bulb Temperature Range Modifier Type
  ,                                       ! Dry-Bulb Temperature Range Modifier Schedule Name
  ASHRAETau,                              ! Solar Model Indicator
  ,                                       ! Beam Solar Day Schedule Name
  ,                                       ! Diffuse Solar Day Schedule Name
  0.418,                                  ! ASHRAE Taub {dimensionless}
  2.061;                                  ! ASHRAE Taud {dimensionless}

OS:ComponentData,
  {329178b0-177c-420e-90cd-413e778ed14b}, ! Handle
  Component Data 1,                       ! Name
  {a0a7c70a-0904-4f4a-a640-2f1a9cc78864}, ! UUID
  {fd34efc9-7fc7-4244-8f79-a60b3b8d681f}, ! Version UUID
  1366308828,                             ! Creation Timestamp
  1366308828,                             ! Version Timestamp
  {b45649ff-a301-43d7-918c-d46d914209a0}; ! Name of Object 1

