
OS:Version,
  {3436e6ca-9f37-43a1-8711-17fbb93f8ae3}, ! Handle
  0.9.3;                                  ! Version Identifier

OS:SizingPeriod:DesignDay,
  {fda3b2ce-5c4e-4c72-92c2-b966df3601cc}, ! Handle
  MIDLAND Ann Clg .4% Condns DB=>MWB,     ! Name
  37.9,                                   ! Maximum Dry-Bulb Temperature {C}
  13.1,                                   ! Daily Dry-Bulb Temperature Range {deltaC}
  19.6,                                   ! Humidity Indicating Conditions at Maximum Dry-Bulb {BasedOnField A3}
  91290,                                  ! Barometric Pressure {Pa}
  5.7,                                    ! Wind Speed {m/s}
  150,                                    ! Wind Direction {deg}
  0,                                      ! Sky Clearness
  0,                                      ! Rain Indicator
  0,                                      ! Snow Indicator
  21,                                     ! Day of Month
  7,                                      ! Month
  SummerDesignDay,                        ! Day Type
  0,                                      ! Daylight Saving Time Indicator
  Wetbulb,                                ! Humidity Indicating Type
  ,                                       ! Humidity Indicating Day Schedule Name
  DefaultMultipliers,                     ! Dry-Bulb Temperature Range Modifier Type
  ,                                       ! Dry-Bulb Temperature Range Modifier Schedule Name
  ASHRAETau,                              ! Solar Model Indicator
  ,                                       ! Beam Solar Day Schedule Name
  ,                                       ! Diffuse Solar Day Schedule Name
  0.443,                                  ! ASHRAE Taub {dimensionless}
  2.032;                                  ! ASHRAE Taud {dimensionless}

OS:ComponentData,
  {30a5d851-721f-45e7-be27-25d19f72e305}, ! Handle
  Component Data 1,                       ! Name
  {78a991ce-1fdc-4ec2-8fba-4841daac90f6}, ! UUID
  {d9d7d50f-4b05-4e4e-9984-a587a5926963}, ! Version UUID
  1366310826,                             ! Creation Timestamp
  1366310826,                             ! Version Timestamp
  {fda3b2ce-5c4e-4c72-92c2-b966df3601cc}; ! Name of Object 1

