
OS:Version,
  {043b02a6-713c-49ed-8a11-71ee377857e3}, ! Handle
  0.9.3;                                  ! Version Identifier

OS:SizingPeriod:DesignDay,
  {64ca61ee-5a72-4a5c-90c4-2052bba0e653}, ! Handle
  Teterboro Airport Ann Hum_n 99% Condns DP=>MCDB, ! Name
  -7.7,                                   ! Maximum Dry-Bulb Temperature {C}
  0,                                      ! Daily Dry-Bulb Temperature Range {deltaC}
  -18.9,                                  ! Humidity Indicating Conditions at Maximum Dry-Bulb {BasedOnField A3}
  101289,                                 ! Barometric Pressure {Pa}
  4.6,                                    ! Wind Speed {m/s}
  340,                                    ! Wind Direction {deg}
  0,                                      ! Sky Clearness
  0,                                      ! Rain Indicator
  0,                                      ! Snow Indicator
  21,                                     ! Day of Month
  1,                                      ! Month
  WinterDesignDay,                        ! Day Type
  0,                                      ! Daylight Saving Time Indicator
  Dewpoint,                               ! Humidity Indicating Type
  ,                                       ! Humidity Indicating Day Schedule Name
  DefaultMultipliers,                     ! Dry-Bulb Temperature Range Modifier Type
  ,                                       ! Dry-Bulb Temperature Range Modifier Schedule Name
  ASHRAEClearSky;                         ! Solar Model Indicator

OS:ComponentData,
  {339980fa-c645-46a8-992a-62a0e8522b0f}, ! Handle
  Component Data 1,                       ! Name
  {1fbbb03f-6a54-41fd-8e4c-077e0cf3db2c}, ! UUID
  {a78f049d-94c1-4658-ab98-981542a48927}, ! Version UUID
  1366309343,                             ! Creation Timestamp
  1366309343,                             ! Version Timestamp
  {64ca61ee-5a72-4a5c-90c4-2052bba0e653}; ! Name of Object 1

