
OS:Version,
  {58466608-79a2-416b-9689-2537925534aa}, ! Handle
  0.9.3;                                  ! Version Identifier

OS:SizingPeriod:DesignDay,
  {40eb6763-3de5-4e7b-a097-76a739edf863}, ! Handle
  Philadelphia International Ap Ann Clg 1% Condns WB=>MDB, ! Name
  30.2,                                   ! Maximum Dry-Bulb Temperature {C}
  9.4,                                    ! Daily Dry-Bulb Temperature Range {deltaC}
  25,                                     ! Humidity Indicating Conditions at Maximum Dry-Bulb {BasedOnField A3}
  101301,                                 ! Barometric Pressure {Pa}
  5,                                      ! Wind Speed {m/s}
  240,                                    ! Wind Direction {deg}
  0,                                      ! Sky Clearness
  0,                                      ! Rain Indicator
  0,                                      ! Snow Indicator
  21,                                     ! Day of Month
  7,                                      ! Month
  SummerDesignDay,                        ! Day Type
  0,                                      ! Daylight Saving Time Indicator
  Wetbulb,                                ! Humidity Indicating Type
  ,                                       ! Humidity Indicating Day Schedule Name
  DefaultMultipliers,                     ! Dry-Bulb Temperature Range Modifier Type
  ,                                       ! Dry-Bulb Temperature Range Modifier Schedule Name
  ASHRAETau,                              ! Solar Model Indicator
  ,                                       ! Beam Solar Day Schedule Name
  ,                                       ! Diffuse Solar Day Schedule Name
  0.55,                                   ! ASHRAE Taub {dimensionless}
  1.776;                                  ! ASHRAE Taud {dimensionless}

OS:ComponentData,
  {bc77127d-36c9-40cb-b1f1-2925102d5a9b}, ! Handle
  Component Data 1,                       ! Name
  {0b9d20a9-bc18-40f3-9681-87b803357501}, ! UUID
  {dbe05040-9d9b-4595-a79d-05e2cfa506bf}, ! Version UUID
  1366310223,                             ! Creation Timestamp
  1366310223,                             ! Version Timestamp
  {40eb6763-3de5-4e7b-a097-76a739edf863}; ! Name of Object 1

