
OS:Version,
  {783c1cc1-0ba2-4cfd-816e-a78af1cbc2f5}, ! Handle
  0.9.3;                                  ! Version Identifier

OS:SizingPeriod:DesignDay,
  {35c20ec8-6d1d-4189-9c2a-39b8d03277e2}, ! Handle
  Red Bluff Ann Clg .4% Condns Enth=>MDB, ! Name
  35.9,                                   ! Maximum Dry-Bulb Temperature {C}
  16.9,                                   ! Daily Dry-Bulb Temperature Range {deltaC}
  67200,                                  ! Humidity Indicating Conditions at Maximum Dry-Bulb {BasedOnField A3}
  100058,                                 ! Barometric Pressure {Pa}
  3.9,                                    ! Wind Speed {m/s}
  150,                                    ! Wind Direction {deg}
  0,                                      ! Sky Clearness
  0,                                      ! Rain Indicator
  0,                                      ! Snow Indicator
  21,                                     ! Day of Month
  7,                                      ! Month
  SummerDesignDay,                        ! Day Type
  0,                                      ! Daylight Saving Time Indicator
  Enthalpy,                               ! Humidity Indicating Type
  ,                                       ! Humidity Indicating Day Schedule Name
  DefaultMultipliers,                     ! Dry-Bulb Temperature Range Modifier Type
  ,                                       ! Dry-Bulb Temperature Range Modifier Schedule Name
  ASHRAETau,                              ! Solar Model Indicator
  ,                                       ! Beam Solar Day Schedule Name
  ,                                       ! Diffuse Solar Day Schedule Name
  0.364,                                  ! ASHRAE Taub {dimensionless}
  2.504;                                  ! ASHRAE Taud {dimensionless}

OS:ComponentData,
  {b7170436-5252-49f6-8a0d-7079769208e1}, ! Handle
  Component Data 1,                       ! Name
  {20f06180-2e98-46ee-9b51-4f75dae78c9c}, ! UUID
  {75c02634-49ce-4967-bc9b-7c91578e1793}, ! Version UUID
  1366306544,                             ! Creation Timestamp
  1366306544,                             ! Version Timestamp
  {35c20ec8-6d1d-4189-9c2a-39b8d03277e2}; ! Name of Object 1

