
OS:Version,
  {f58e98f6-683d-49e0-a237-11c14f762867}, ! Handle
  0.9.3;                                  ! Version Identifier

OS:SizingPeriod:DesignDay,
  {506e8dd0-6c2c-419c-b357-c65c54941f43}, ! Handle
  Oakland Metropolitan Arpt Ann Hum_n 99% Condns DP=>MCDB, ! Name
  10.7,                                   ! Maximum Dry-Bulb Temperature {C}
  0,                                      ! Daily Dry-Bulb Temperature Range {deltaC}
  -2.5,                                   ! Humidity Indicating Conditions at Maximum Dry-Bulb {BasedOnField A3}
  101301,                                 ! Barometric Pressure {Pa}
  2.2,                                    ! Wind Speed {m/s}
  50,                                     ! Wind Direction {deg}
  0,                                      ! Sky Clearness
  0,                                      ! Rain Indicator
  0,                                      ! Snow Indicator
  21,                                     ! Day of Month
  1,                                      ! Month
  WinterDesignDay,                        ! Day Type
  0,                                      ! Daylight Saving Time Indicator
  Dewpoint,                               ! Humidity Indicating Type
  ,                                       ! Humidity Indicating Day Schedule Name
  DefaultMultipliers,                     ! Dry-Bulb Temperature Range Modifier Type
  ,                                       ! Dry-Bulb Temperature Range Modifier Schedule Name
  ASHRAEClearSky;                         ! Solar Model Indicator

OS:ComponentData,
  {5f16b7da-2d82-4997-9c41-aeda625b4ddb}, ! Handle
  Component Data 1,                       ! Name
  {b6c4b3ef-fad6-40c8-9e95-643d305f6d0e}, ! UUID
  {078e5deb-5202-4f9a-bea8-d65ec9927e85}, ! Version UUID
  1366306523,                             ! Creation Timestamp
  1366306523,                             ! Version Timestamp
  {506e8dd0-6c2c-419c-b357-c65c54941f43}; ! Name of Object 1

