
OS:Version,
  {c529cb8b-3b44-4376-8b05-892b99c140bc}, ! Handle
  0.9.3;                                  ! Version Identifier

OS:SizingPeriod:DesignDay,
  {213fffb7-65b4-4674-9abf-4bfd20468ee7}, ! Handle
  Stuttgart  Awos Ann Htg Wind 99.6% Condns WS=>MCDB, ! Name
  7.7,                                    ! Maximum Dry-Bulb Temperature {C}
  0,                                      ! Daily Dry-Bulb Temperature Range {deltaC}
  7.7,                                    ! Humidity Indicating Conditions at Maximum Dry-Bulb {BasedOnField A3}
  100511,                                 ! Barometric Pressure {Pa}
  12,                                     ! Wind Speed {m/s}
  20,                                     ! Wind Direction {deg}
  0,                                      ! Sky Clearness
  0,                                      ! Rain Indicator
  0,                                      ! Snow Indicator
  21,                                     ! Day of Month
  1,                                      ! Month
  WinterDesignDay,                        ! Day Type
  0,                                      ! Daylight Saving Time Indicator
  Wetbulb,                                ! Humidity Indicating Type
  ,                                       ! Humidity Indicating Day Schedule Name
  DefaultMultipliers,                     ! Dry-Bulb Temperature Range Modifier Type
  ,                                       ! Dry-Bulb Temperature Range Modifier Schedule Name
  ASHRAEClearSky;                         ! Solar Model Indicator

OS:ComponentData,
  {ad9eaff4-f8af-484f-92df-8b131d8981c4}, ! Handle
  Component Data 1,                       ! Name
  {a7b8aa65-e746-4e6c-a882-bc63b8c466b1}, ! UUID
  {3da7d1cf-266c-4cb0-b9d5-a60048f7a926}, ! Version UUID
  1366306248,                             ! Creation Timestamp
  1366306248,                             ! Version Timestamp
  {213fffb7-65b4-4674-9abf-4bfd20468ee7}; ! Name of Object 1

