
OS:Version,
  {c6d565df-3e30-4c85-b690-4bb45cc0d195}, ! Handle
  0.9.3;                                  ! Version Identifier

OS:SizingPeriod:DesignDay,
  {0c94eeb1-50fd-4614-83ff-29ec2a59f030}, ! Handle
  Storm Lake Ann Htg Wind 99% Condns WS=>MCDB, ! Name
  -12.4,                                  ! Maximum Dry-Bulb Temperature {C}
  0,                                      ! Daily Dry-Bulb Temperature Range {deltaC}
  -12.4,                                  ! Humidity Indicating Conditions at Maximum Dry-Bulb {BasedOnField A3}
  95989,                                  ! Barometric Pressure {Pa}
  14.2,                                   ! Wind Speed {m/s}
  310,                                    ! Wind Direction {deg}
  0,                                      ! Sky Clearness
  0,                                      ! Rain Indicator
  0,                                      ! Snow Indicator
  21,                                     ! Day of Month
  1,                                      ! Month
  WinterDesignDay,                        ! Day Type
  0,                                      ! Daylight Saving Time Indicator
  Wetbulb,                                ! Humidity Indicating Type
  ,                                       ! Humidity Indicating Day Schedule Name
  DefaultMultipliers,                     ! Dry-Bulb Temperature Range Modifier Type
  ,                                       ! Dry-Bulb Temperature Range Modifier Schedule Name
  ASHRAEClearSky;                         ! Solar Model Indicator

OS:ComponentData,
  {a9371a3c-3829-4a80-bec0-82ce436a38bf}, ! Handle
  Component Data 1,                       ! Name
  {cc96131c-d958-433f-b1f1-93fc6314c5fb}, ! UUID
  {55749e07-7a51-4b4d-8eb2-5e3b22767ddb}, ! Version UUID
  1366307245,                             ! Creation Timestamp
  1366307245,                             ! Version Timestamp
  {0c94eeb1-50fd-4614-83ff-29ec2a59f030}; ! Name of Object 1

