
OS:Version,
  {8eafe068-0252-4a04-9b57-9632bb0a5bb6}, ! Handle
  0.9.3;                                  ! Version Identifier

OS:SizingPeriod:DesignDay,
  {7751c6b8-4aaf-4fad-90bb-34678c4ae8a0}, ! Handle
  Miles City Municipal Arpt Ann Hum_n 99.6% Condns DP=>MCDB, ! Name
  -27.7,                                  ! Maximum Dry-Bulb Temperature {C}
  0,                                      ! Daily Dry-Bulb Temperature Range {deltaC}
  -32.5,                                  ! Humidity Indicating Conditions at Maximum Dry-Bulb {BasedOnField A3}
  92065,                                  ! Barometric Pressure {Pa}
  3.2,                                    ! Wind Speed {m/s}
  310,                                    ! Wind Direction {deg}
  0,                                      ! Sky Clearness
  0,                                      ! Rain Indicator
  0,                                      ! Snow Indicator
  21,                                     ! Day of Month
  1,                                      ! Month
  WinterDesignDay,                        ! Day Type
  0,                                      ! Daylight Saving Time Indicator
  Dewpoint,                               ! Humidity Indicating Type
  ,                                       ! Humidity Indicating Day Schedule Name
  DefaultMultipliers,                     ! Dry-Bulb Temperature Range Modifier Type
  ,                                       ! Dry-Bulb Temperature Range Modifier Schedule Name
  ASHRAEClearSky;                         ! Solar Model Indicator

OS:ComponentData,
  {f36a6d4e-0ce9-4c5d-9f65-2d5bc2e460fc}, ! Handle
  Component Data 1,                       ! Name
  {4758d2b9-5d32-438d-9602-e4661ab9a9e1}, ! UUID
  {61d83748-2d88-4559-bf4b-2e19775bf29c}, ! Version UUID
  1366308835,                             ! Creation Timestamp
  1366308835,                             ! Version Timestamp
  {7751c6b8-4aaf-4fad-90bb-34678c4ae8a0}; ! Name of Object 1

