
OS:Version,
  {2521c69b-a70f-4d22-8b4c-33267277bc83}, ! Handle
  0.9.3;                                  ! Version Identifier

OS:SizingPeriod:DesignDay,
  {0dce0403-eea0-413e-8452-8f43ba3c3de0}, ! Handle
  Tonopah Ann Clg 2% Condns DB=>MWB,      ! Name
  32.6,                                   ! Maximum Dry-Bulb Temperature {C}
  18.2,                                   ! Daily Dry-Bulb Temperature Range {deltaC}
  14.6,                                   ! Humidity Indicating Conditions at Maximum Dry-Bulb {BasedOnField A3}
  82970,                                  ! Barometric Pressure {Pa}
  5.1,                                    ! Wind Speed {m/s}
  180,                                    ! Wind Direction {deg}
  0,                                      ! Sky Clearness
  0,                                      ! Rain Indicator
  0,                                      ! Snow Indicator
  21,                                     ! Day of Month
  7,                                      ! Month
  SummerDesignDay,                        ! Day Type
  0,                                      ! Daylight Saving Time Indicator
  Wetbulb,                                ! Humidity Indicating Type
  ,                                       ! Humidity Indicating Day Schedule Name
  DefaultMultipliers,                     ! Dry-Bulb Temperature Range Modifier Type
  ,                                       ! Dry-Bulb Temperature Range Modifier Schedule Name
  ASHRAETau,                              ! Solar Model Indicator
  ,                                       ! Beam Solar Day Schedule Name
  ,                                       ! Diffuse Solar Day Schedule Name
  0.483,                                  ! ASHRAE Taub {dimensionless}
  1.772;                                  ! ASHRAE Taud {dimensionless}

OS:ComponentData,
  {2bf248cb-9beb-42ed-bc06-ee413034d4dd}, ! Handle
  Component Data 1,                       ! Name
  {03e1702b-6dc1-4433-a78b-8ef57c4dba99}, ! UUID
  {4dd8d1aa-5251-4559-9e64-169959eff411}, ! Version UUID
  1366309550,                             ! Creation Timestamp
  1366309550,                             ! Version Timestamp
  {0dce0403-eea0-413e-8452-8f43ba3c3de0}; ! Name of Object 1

