
OS:Version,
  {183fb5f9-9034-4112-b8d7-bb7d529eb130}, ! Handle
  0.9.3;                                  ! Version Identifier

OS:SizingPeriod:DesignDay,
  {8ae329f5-7678-4cd2-bc1b-9d8a493adf33}, ! Handle
  Sitka Japonski Ap Ann Htg Wind 99% Condns WS=>MCDB, ! Name
  5.8,                                    ! Maximum Dry-Bulb Temperature {C}
  0,                                      ! Daily Dry-Bulb Temperature Range {deltaC}
  5.8,                                    ! Humidity Indicating Conditions at Maximum Dry-Bulb {BasedOnField A3}
  101277,                                 ! Barometric Pressure {Pa}
  12,                                     ! Wind Speed {m/s}
  80,                                     ! Wind Direction {deg}
  0,                                      ! Sky Clearness
  0,                                      ! Rain Indicator
  0,                                      ! Snow Indicator
  21,                                     ! Day of Month
  1,                                      ! Month
  WinterDesignDay,                        ! Day Type
  0,                                      ! Daylight Saving Time Indicator
  Wetbulb,                                ! Humidity Indicating Type
  ,                                       ! Humidity Indicating Day Schedule Name
  DefaultMultipliers,                     ! Dry-Bulb Temperature Range Modifier Type
  ,                                       ! Dry-Bulb Temperature Range Modifier Schedule Name
  ASHRAEClearSky;                         ! Solar Model Indicator

OS:ComponentData,
  {30a98860-db05-40ef-b96e-e888f12a7dc6}, ! Handle
  Component Data 1,                       ! Name
  {73751cd3-d4c7-4454-9421-6454137a3cc6}, ! UUID
  {233e0c9d-b716-4093-94a7-34ff2687677c}, ! Version UUID
  1366305549,                             ! Creation Timestamp
  1366305549,                             ! Version Timestamp
  {8ae329f5-7678-4cd2-bc1b-9d8a493adf33}; ! Name of Object 1

