
OS:Version,
  {5df3f7fc-292b-4fed-9e52-adca3464e279}, ! Handle
  0.9.3;                                  ! Version Identifier

OS:SizingPeriod:DesignDay,
  {c822e5f7-9bbe-48f5-ad98-adb4b0a368ec}, ! Handle
  North Bend Muni Airport Ann Clg .4% Condns Enth=>MDB, ! Name
  20.2,                                   ! Maximum Dry-Bulb Temperature {C}
  7.3,                                    ! Daily Dry-Bulb Temperature Range {deltaC}
  46800,                                  ! Humidity Indicating Conditions at Maximum Dry-Bulb {BasedOnField A3}
  101301,                                 ! Barometric Pressure {Pa}
  6.1,                                    ! Wind Speed {m/s}
  330,                                    ! Wind Direction {deg}
  0,                                      ! Sky Clearness
  0,                                      ! Rain Indicator
  0,                                      ! Snow Indicator
  21,                                     ! Day of Month
  8,                                      ! Month
  SummerDesignDay,                        ! Day Type
  0,                                      ! Daylight Saving Time Indicator
  Enthalpy,                               ! Humidity Indicating Type
  ,                                       ! Humidity Indicating Day Schedule Name
  DefaultMultipliers,                     ! Dry-Bulb Temperature Range Modifier Type
  ,                                       ! Dry-Bulb Temperature Range Modifier Schedule Name
  ASHRAETau,                              ! Solar Model Indicator
  ,                                       ! Beam Solar Day Schedule Name
  ,                                       ! Diffuse Solar Day Schedule Name
  0.348,                                  ! ASHRAE Taub {dimensionless}
  2.638;                                  ! ASHRAE Taud {dimensionless}

OS:ComponentData,
  {513c2ea6-29a0-4ac3-92fa-bc903c5c2712}, ! Handle
  Component Data 1,                       ! Name
  {71ea80fe-6254-490e-bbe6-9b80afc162e5}, ! UUID
  {db282ca5-a5bb-4aca-b752-8d9a4ba5f478}, ! Version UUID
  1366310055,                             ! Creation Timestamp
  1366310055,                             ! Version Timestamp
  {c822e5f7-9bbe-48f5-ad98-adb4b0a368ec}; ! Name of Object 1

