
OS:Version,
  {908f0b75-f52d-4809-ba8b-9fa6636ecbb5}, ! Handle
  0.9.3;                                  ! Version Identifier

OS:SizingPeriod:DesignDay,
  {9cf3234f-ec46-4f91-831f-3f692619b601}, ! Handle
  Wise Lonesome Pine Ann Clg 2% Condns DP=>MDB, ! Name
  24,                                     ! Maximum Dry-Bulb Temperature {C}
  9.5,                                    ! Daily Dry-Bulb Temperature Range {deltaC}
  20.1,                                   ! Humidity Indicating Conditions at Maximum Dry-Bulb {BasedOnField A3}
  91888,                                  ! Barometric Pressure {Pa}
  2.5,                                    ! Wind Speed {m/s}
  170,                                    ! Wind Direction {deg}
  0,                                      ! Sky Clearness
  0,                                      ! Rain Indicator
  0,                                      ! Snow Indicator
  21,                                     ! Day of Month
  7,                                      ! Month
  SummerDesignDay,                        ! Day Type
  0,                                      ! Daylight Saving Time Indicator
  Dewpoint,                               ! Humidity Indicating Type
  ,                                       ! Humidity Indicating Day Schedule Name
  DefaultMultipliers,                     ! Dry-Bulb Temperature Range Modifier Type
  ,                                       ! Dry-Bulb Temperature Range Modifier Schedule Name
  ASHRAETau,                              ! Solar Model Indicator
  ,                                       ! Beam Solar Day Schedule Name
  ,                                       ! Diffuse Solar Day Schedule Name
  0.485,                                  ! ASHRAE Taub {dimensionless}
  1.901;                                  ! ASHRAE Taud {dimensionless}

OS:ComponentData,
  {8c279a46-149c-49c0-9a68-53eed4ed52be}, ! Handle
  Component Data 1,                       ! Name
  {06e99f18-3b1e-42ac-a3a3-1bde6f83ff8c}, ! UUID
  {ae46e0aa-c3aa-4de9-bae9-b98ab5354188}, ! Version UUID
  1366311230,                             ! Creation Timestamp
  1366311230,                             ! Version Timestamp
  {9cf3234f-ec46-4f91-831f-3f692619b601}; ! Name of Object 1

