
OS:Version,
  {a8b22808-334e-4901-aed4-514e310aa84b}, ! Handle
  0.9.3;                                  ! Version Identifier

OS:SizingPeriod:DesignDay,
  {fa2a8fdf-2dd4-4e45-8b9b-263166dcfbe5}, ! Handle
  Seattle-Tacoma/Int'l A Ann Clg 2% Condns Enth=>MDB, ! Name
  24.4,                                   ! Maximum Dry-Bulb Temperature {C}
  10.4,                                   ! Daily Dry-Bulb Temperature Range {deltaC}
  49100,                                  ! Humidity Indicating Conditions at Maximum Dry-Bulb {BasedOnField A3}
  99690,                                  ! Barometric Pressure {Pa}
  4.2,                                    ! Wind Speed {m/s}
  350,                                    ! Wind Direction {deg}
  0,                                      ! Sky Clearness
  0,                                      ! Rain Indicator
  0,                                      ! Snow Indicator
  21,                                     ! Day of Month
  8,                                      ! Month
  SummerDesignDay,                        ! Day Type
  0,                                      ! Daylight Saving Time Indicator
  Enthalpy,                               ! Humidity Indicating Type
  ,                                       ! Humidity Indicating Day Schedule Name
  DefaultMultipliers,                     ! Dry-Bulb Temperature Range Modifier Type
  ,                                       ! Dry-Bulb Temperature Range Modifier Schedule Name
  ASHRAETau,                              ! Solar Model Indicator
  ,                                       ! Beam Solar Day Schedule Name
  ,                                       ! Diffuse Solar Day Schedule Name
  0.352,                                  ! ASHRAE Taub {dimensionless}
  2.561;                                  ! ASHRAE Taud {dimensionless}

OS:ComponentData,
  {684f646c-c37b-4340-9cbc-1fa4fda49718}, ! Handle
  Component Data 1,                       ! Name
  {9b60ef83-5abb-4809-8c88-0bdee6fc99d6}, ! UUID
  {6bc4c602-cc9b-44b0-8402-3b9f0c66e52b}, ! Version UUID
  1366311361,                             ! Creation Timestamp
  1366311361,                             ! Version Timestamp
  {fa2a8fdf-2dd4-4e45-8b9b-263166dcfbe5}; ! Name of Object 1

