
OS:Version,
  {ab6ffcbf-ee94-4945-a77d-4fd6424a2c4c}, ! Handle
  0.9.3;                                  ! Version Identifier

OS:SizingPeriod:DesignDay,
  {fd612697-c0f2-433e-8c4a-ee1453dc7877}, ! Handle
  Presque Isle Municip Ann Htg Wind 99% Condns WS=>MCDB, ! Name
  -5,                                     ! Maximum Dry-Bulb Temperature {C}
  0,                                      ! Daily Dry-Bulb Temperature Range {deltaC}
  -5,                                     ! Humidity Indicating Conditions at Maximum Dry-Bulb {BasedOnField A3}
  99382,                                  ! Barometric Pressure {Pa}
  11,                                     ! Wind Speed {m/s}
  290,                                    ! Wind Direction {deg}
  0,                                      ! Sky Clearness
  0,                                      ! Rain Indicator
  0,                                      ! Snow Indicator
  21,                                     ! Day of Month
  1,                                      ! Month
  WinterDesignDay,                        ! Day Type
  0,                                      ! Daylight Saving Time Indicator
  Wetbulb,                                ! Humidity Indicating Type
  ,                                       ! Humidity Indicating Day Schedule Name
  DefaultMultipliers,                     ! Dry-Bulb Temperature Range Modifier Type
  ,                                       ! Dry-Bulb Temperature Range Modifier Schedule Name
  ASHRAEClearSky;                         ! Solar Model Indicator

OS:ComponentData,
  {7bed7c79-e7b4-4d93-ab96-6a13650df575}, ! Handle
  Component Data 1,                       ! Name
  {a53b8d34-a331-4b89-9e78-efb62643b381}, ! UUID
  {80258b35-5a67-4b45-a738-0798411b237f}, ! Version UUID
  1366307918,                             ! Creation Timestamp
  1366307918,                             ! Version Timestamp
  {fd612697-c0f2-433e-8c4a-ee1453dc7877}; ! Name of Object 1

