
OS:Version,
  {32c6fa1a-44f6-413b-ae6f-c1183058065b}, ! Handle
  0.9.3;                                  ! Version Identifier

OS:SizingPeriod:DesignDay,
  {23957b7c-dc2d-40bc-8311-4212ed838c30}, ! Handle
  Midland International Ap Ann Clg 1% Condns WB=>MDB, ! Name
  30.3,                                   ! Maximum Dry-Bulb Temperature {C}
  13.1,                                   ! Daily Dry-Bulb Temperature Range {deltaC}
  22.3,                                   ! Humidity Indicating Conditions at Maximum Dry-Bulb {BasedOnField A3}
  91279,                                  ! Barometric Pressure {Pa}
  5.7,                                    ! Wind Speed {m/s}
  150,                                    ! Wind Direction {deg}
  0,                                      ! Sky Clearness
  0,                                      ! Rain Indicator
  0,                                      ! Snow Indicator
  21,                                     ! Day of Month
  7,                                      ! Month
  SummerDesignDay,                        ! Day Type
  0,                                      ! Daylight Saving Time Indicator
  Wetbulb,                                ! Humidity Indicating Type
  ,                                       ! Humidity Indicating Day Schedule Name
  DefaultMultipliers,                     ! Dry-Bulb Temperature Range Modifier Type
  ,                                       ! Dry-Bulb Temperature Range Modifier Schedule Name
  ASHRAETau,                              ! Solar Model Indicator
  ,                                       ! Beam Solar Day Schedule Name
  ,                                       ! Diffuse Solar Day Schedule Name
  0.443,                                  ! ASHRAE Taub {dimensionless}
  2.032;                                  ! ASHRAE Taud {dimensionless}

OS:ComponentData,
  {79fc1be9-d1a9-4f7a-8e6f-07075f19087e}, ! Handle
  Component Data 1,                       ! Name
  {90e2d511-3fad-4fe4-9ed2-0f0281834bcb}, ! UUID
  {856edb2e-0d11-4ace-bbd9-e6c945e0e48c}, ! Version UUID
  1366310835,                             ! Creation Timestamp
  1366310835,                             ! Version Timestamp
  {23957b7c-dc2d-40bc-8311-4212ed838c30}; ! Name of Object 1

