
OS:Version,
  {3c96655b-0e57-4807-ad92-388c2d64f66f}, ! Handle
  0.9.3;                                  ! Version Identifier

OS:SizingPeriod:DesignDay,
  {4891ab28-7c84-4bd7-91c7-6fcd0990cdca}, ! Handle
  Mcallen Miller Intl Ap  Edinb Ann Htg Wind 99% Condns WS=>MCDB, ! Name
  21.6,                                   ! Maximum Dry-Bulb Temperature {C}
  0,                                      ! Daily Dry-Bulb Temperature Range {deltaC}
  21.6,                                   ! Humidity Indicating Conditions at Maximum Dry-Bulb {BasedOnField A3}
  100965,                                 ! Barometric Pressure {Pa}
  11.1,                                   ! Wind Speed {m/s}
  340,                                    ! Wind Direction {deg}
  0,                                      ! Sky Clearness
  0,                                      ! Rain Indicator
  0,                                      ! Snow Indicator
  21,                                     ! Day of Month
  1,                                      ! Month
  WinterDesignDay,                        ! Day Type
  0,                                      ! Daylight Saving Time Indicator
  Wetbulb,                                ! Humidity Indicating Type
  ,                                       ! Humidity Indicating Day Schedule Name
  DefaultMultipliers,                     ! Dry-Bulb Temperature Range Modifier Type
  ,                                       ! Dry-Bulb Temperature Range Modifier Schedule Name
  ASHRAEClearSky;                         ! Solar Model Indicator

OS:ComponentData,
  {92f4c634-ca40-4078-86d9-9ec467094002}, ! Handle
  Component Data 1,                       ! Name
  {6ca93a4f-af4b-4107-b332-79b175fede55}, ! UUID
  {d8b3866e-212d-47c2-9064-f5e71edf35c2}, ! Version UUID
  1366310819,                             ! Creation Timestamp
  1366310819,                             ! Version Timestamp
  {4891ab28-7c84-4bd7-91c7-6fcd0990cdca}; ! Name of Object 1

