
OS:Version,
  {3dc28e66-a7c9-458d-99a2-852de447a7c0}, ! Handle
  0.9.3;                                  ! Version Identifier

OS:SizingPeriod:DesignDay,
  {5faebd5d-3a8d-48da-b5e2-af48e987034c}, ! Handle
  Oklahoma City/Will Rog Ann Clg 2% Condns DP=>MDB, ! Name
  27.4,                                   ! Maximum Dry-Bulb Temperature {C}
  11.7,                                   ! Daily Dry-Bulb Temperature Range {deltaC}
  22.3,                                   ! Humidity Indicating Conditions at Maximum Dry-Bulb {BasedOnField A3}
  96646,                                  ! Barometric Pressure {Pa}
  5.5,                                    ! Wind Speed {m/s}
  170,                                    ! Wind Direction {deg}
  0,                                      ! Sky Clearness
  0,                                      ! Rain Indicator
  0,                                      ! Snow Indicator
  21,                                     ! Day of Month
  7,                                      ! Month
  SummerDesignDay,                        ! Day Type
  0,                                      ! Daylight Saving Time Indicator
  Dewpoint,                               ! Humidity Indicating Type
  ,                                       ! Humidity Indicating Day Schedule Name
  DefaultMultipliers,                     ! Dry-Bulb Temperature Range Modifier Type
  ,                                       ! Dry-Bulb Temperature Range Modifier Schedule Name
  ASHRAETau,                              ! Solar Model Indicator
  ,                                       ! Beam Solar Day Schedule Name
  ,                                       ! Diffuse Solar Day Schedule Name
  0.426,                                  ! ASHRAE Taub {dimensionless}
  2.214;                                  ! ASHRAE Taud {dimensionless}

OS:ComponentData,
  {df720045-ca36-4266-834c-ce2995241325}, ! Handle
  Component Data 1,                       ! Name
  {cf46aa28-208e-448f-9eb3-b7102c550a07}, ! UUID
  {6470a6c7-3816-42db-8acf-a4ccbc94fe9a}, ! Version UUID
  1366309923,                             ! Creation Timestamp
  1366309923,                             ! Version Timestamp
  {5faebd5d-3a8d-48da-b5e2-af48e987034c}; ! Name of Object 1

