
OS:Version,
  {a9bc77d2-3b86-410f-a078-1a68c3cbb790}, ! Handle
  0.9.3;                                  ! Version Identifier

OS:SizingPeriod:DesignDay,
  {90e7ccc5-a109-4ec8-8704-095c303560ed}, ! Handle
  Millville Municipal Ap Ann Htg Wind 99% Condns WS=>MCDB, ! Name
  2.1,                                    ! Maximum Dry-Bulb Temperature {C}
  0,                                      ! Daily Dry-Bulb Temperature Range {deltaC}
  2.1,                                    ! Humidity Indicating Conditions at Maximum Dry-Bulb {BasedOnField A3}
  101073,                                 ! Barometric Pressure {Pa}
  9.2,                                    ! Wind Speed {m/s}
  290,                                    ! Wind Direction {deg}
  0,                                      ! Sky Clearness
  0,                                      ! Rain Indicator
  0,                                      ! Snow Indicator
  21,                                     ! Day of Month
  1,                                      ! Month
  WinterDesignDay,                        ! Day Type
  0,                                      ! Daylight Saving Time Indicator
  Wetbulb,                                ! Humidity Indicating Type
  ,                                       ! Humidity Indicating Day Schedule Name
  DefaultMultipliers,                     ! Dry-Bulb Temperature Range Modifier Type
  ,                                       ! Dry-Bulb Temperature Range Modifier Schedule Name
  ASHRAEClearSky;                         ! Solar Model Indicator

OS:ComponentData,
  {9320d224-0c87-425b-8d8a-4deafd7723a3}, ! Handle
  Component Data 1,                       ! Name
  {820b43ba-c3a5-49bd-812b-4aae7da7d4ef}, ! UUID
  {c964ca22-f9b7-485e-b6d9-b339568b99e8}, ! Version UUID
  1366309317,                             ! Creation Timestamp
  1366309317,                             ! Version Timestamp
  {90e7ccc5-a109-4ec8-8704-095c303560ed}; ! Name of Object 1

