
OS:Version,
  {8f5e8a6e-88e3-4661-ac26-e5f79a8c1fad}, ! Handle
  0.9.3;                                  ! Version Identifier

OS:SizingPeriod:DesignDay,
  {0d355c78-816c-406b-949c-df0cd35c6047}, ! Handle
  Red Wing Ann Clg .4% Condns DB=>MWB,    ! Name
  32.5,                                   ! Maximum Dry-Bulb Temperature {C}
  11.2,                                   ! Daily Dry-Bulb Temperature Range {deltaC}
  23.5,                                   ! Humidity Indicating Conditions at Maximum Dry-Bulb {BasedOnField A3}
  98487,                                  ! Barometric Pressure {Pa}
  4.4,                                    ! Wind Speed {m/s}
  190,                                    ! Wind Direction {deg}
  0,                                      ! Sky Clearness
  0,                                      ! Rain Indicator
  0,                                      ! Snow Indicator
  21,                                     ! Day of Month
  7,                                      ! Month
  SummerDesignDay,                        ! Day Type
  0,                                      ! Daylight Saving Time Indicator
  Wetbulb,                                ! Humidity Indicating Type
  ,                                       ! Humidity Indicating Day Schedule Name
  DefaultMultipliers,                     ! Dry-Bulb Temperature Range Modifier Type
  ,                                       ! Dry-Bulb Temperature Range Modifier Schedule Name
  ASHRAETau,                              ! Solar Model Indicator
  ,                                       ! Beam Solar Day Schedule Name
  ,                                       ! Diffuse Solar Day Schedule Name
  0.413,                                  ! ASHRAE Taub {dimensionless}
  2.205;                                  ! ASHRAE Taud {dimensionless}

OS:ComponentData,
  {8ba89b0e-4cd2-4401-997d-f85ae3d5dbd6}, ! Handle
  Component Data 1,                       ! Name
  {a37c86c9-f33e-42c2-bf5d-574886aab5e9}, ! UUID
  {b3e6e5d4-c4d3-4475-a35e-8807c887942e}, ! Version UUID
  1366308375,                             ! Creation Timestamp
  1366308375,                             ! Version Timestamp
  {0d355c78-816c-406b-949c-df0cd35c6047}; ! Name of Object 1

