
OS:Version,
  {7d72c495-a67f-4dd9-900f-a871129bd469}, ! Handle
  0.9.3;                                  ! Version Identifier

OS:SizingPeriod:DesignDay,
  {a86c7341-376b-4ef4-8e19-e20299b14193}, ! Handle
  Norfolk Karl Stefan Mem Arpt Ann Clg .4% Condns Enth=>MDB, ! Name
  31.8,                                   ! Maximum Dry-Bulb Temperature {C}
  11.9,                                   ! Daily Dry-Bulb Temperature Range {deltaC}
  80000,                                  ! Humidity Indicating Conditions at Maximum Dry-Bulb {BasedOnField A3}
  95782,                                  ! Barometric Pressure {Pa}
  6.5,                                    ! Wind Speed {m/s}
  190,                                    ! Wind Direction {deg}
  0,                                      ! Sky Clearness
  0,                                      ! Rain Indicator
  0,                                      ! Snow Indicator
  21,                                     ! Day of Month
  7,                                      ! Month
  SummerDesignDay,                        ! Day Type
  0,                                      ! Daylight Saving Time Indicator
  Enthalpy,                               ! Humidity Indicating Type
  ,                                       ! Humidity Indicating Day Schedule Name
  DefaultMultipliers,                     ! Dry-Bulb Temperature Range Modifier Type
  ,                                       ! Dry-Bulb Temperature Range Modifier Schedule Name
  ASHRAETau,                              ! Solar Model Indicator
  ,                                       ! Beam Solar Day Schedule Name
  ,                                       ! Diffuse Solar Day Schedule Name
  0.402,                                  ! ASHRAE Taub {dimensionless}
  2.247;                                  ! ASHRAE Taud {dimensionless}

OS:ComponentData,
  {baa117ce-9871-4cc7-bd8b-2ab7764e6b3a}, ! Handle
  Component Data 1,                       ! Name
  {9f07598a-21cd-49d6-8e72-2307ba5433d3}, ! UUID
  {c5068d8a-9f52-492d-8b19-eb32e8ad04ca}, ! Version UUID
  1366309150,                             ! Creation Timestamp
  1366309150,                             ! Version Timestamp
  {a86c7341-376b-4ef4-8e19-e20299b14193}; ! Name of Object 1

