
OS:Version,
  {fbbf6595-3707-43fe-bcf7-6344c87302e8}, ! Handle
  0.9.3;                                  ! Version Identifier

OS:SizingPeriod:DesignDay,
  {ca122420-02fa-443b-bbaf-e47729e2a8b1}, ! Handle
  RAPID_CITY Ann Clg .4% Condns Enth=>MDB, ! Name
  29.8,                                   ! Maximum Dry-Bulb Temperature {C}
  14.8,                                   ! Daily Dry-Bulb Temperature Range {deltaC}
  67700,                                  ! Humidity Indicating Conditions at Maximum Dry-Bulb {BasedOnField A3}
  90246,                                  ! Barometric Pressure {Pa}
  6,                                      ! Wind Speed {m/s}
  180,                                    ! Wind Direction {deg}
  0,                                      ! Sky Clearness
  0,                                      ! Rain Indicator
  0,                                      ! Snow Indicator
  21,                                     ! Day of Month
  7,                                      ! Month
  SummerDesignDay,                        ! Day Type
  0,                                      ! Daylight Saving Time Indicator
  Enthalpy,                               ! Humidity Indicating Type
  ,                                       ! Humidity Indicating Day Schedule Name
  DefaultMultipliers,                     ! Dry-Bulb Temperature Range Modifier Type
  ,                                       ! Dry-Bulb Temperature Range Modifier Schedule Name
  ASHRAETau,                              ! Solar Model Indicator
  ,                                       ! Beam Solar Day Schedule Name
  ,                                       ! Diffuse Solar Day Schedule Name
  0.41,                                   ! ASHRAE Taub {dimensionless}
  2.134;                                  ! ASHRAE Taud {dimensionless}

OS:ComponentData,
  {3f33500e-4c00-4c88-b365-53dab31193ef}, ! Handle
  Component Data 1,                       ! Name
  {ead8e3a0-c849-4506-8250-5283868457ab}, ! UUID
  {f379cdb4-9324-462e-8745-bace3f22b906}, ! Version UUID
  1366310442,                             ! Creation Timestamp
  1366310442,                             ! Version Timestamp
  {ca122420-02fa-443b-bbaf-e47729e2a8b1}; ! Name of Object 1

