
OS:Version,
  {a1952425-55e3-4337-bfd5-abda079ea747}, ! Handle
  0.9.3;                                  ! Version Identifier

OS:SizingPeriod:DesignDay,
  {063610b6-df33-46ee-af2c-4350695ef495}, ! Handle
  Milwaukee Mitchell Intl Ap Ann Clg .4% Condns WB=>MDB, ! Name
  30.5,                                   ! Maximum Dry-Bulb Temperature {C}
  8.7,                                    ! Daily Dry-Bulb Temperature Range {deltaC}
  25,                                     ! Humidity Indicating Conditions at Maximum Dry-Bulb {BasedOnField A3}
  98886,                                  ! Barometric Pressure {Pa}
  6.4,                                    ! Wind Speed {m/s}
  240,                                    ! Wind Direction {deg}
  0,                                      ! Sky Clearness
  0,                                      ! Rain Indicator
  0,                                      ! Snow Indicator
  21,                                     ! Day of Month
  7,                                      ! Month
  SummerDesignDay,                        ! Day Type
  0,                                      ! Daylight Saving Time Indicator
  Wetbulb,                                ! Humidity Indicating Type
  ,                                       ! Humidity Indicating Day Schedule Name
  DefaultMultipliers,                     ! Dry-Bulb Temperature Range Modifier Type
  ,                                       ! Dry-Bulb Temperature Range Modifier Schedule Name
  ASHRAETau,                              ! Solar Model Indicator
  ,                                       ! Beam Solar Day Schedule Name
  ,                                       ! Diffuse Solar Day Schedule Name
  0.452,                                  ! ASHRAE Taub {dimensionless}
  2.061;                                  ! ASHRAE Taud {dimensionless}

OS:ComponentData,
  {bc1715f5-039f-4370-8fad-f43a4e3e1e13}, ! Handle
  Component Data 1,                       ! Name
  {3bd5a668-3906-4394-8af9-713124411b35}, ! UUID
  {6b44edd5-faaa-4ba6-b2ee-a536203696c3}, ! Version UUID
  1366311557,                             ! Creation Timestamp
  1366311557,                             ! Version Timestamp
  {063610b6-df33-46ee-af2c-4350695ef495}; ! Name of Object 1

