
OS:Version,
  {a1fff3b4-00b5-4662-a5bc-d8c7c93e6b90}, ! Handle
  0.9.3;                                  ! Version Identifier

OS:SizingPeriod:DesignDay,
  {3af4e888-dbde-40a2-9f0d-b746b52ed474}, ! Handle
  Skagway Airport Ann Clg .4% Condns Enth=>MDB, ! Name
  20.6,                                   ! Maximum Dry-Bulb Temperature {C}
  6,                                      ! Daily Dry-Bulb Temperature Range {deltaC}
  42700,                                  ! Humidity Indicating Conditions at Maximum Dry-Bulb {BasedOnField A3}
  101217,                                 ! Barometric Pressure {Pa}
  5,                                      ! Wind Speed {m/s}
  210,                                    ! Wind Direction {deg}
  0,                                      ! Sky Clearness
  0,                                      ! Rain Indicator
  0,                                      ! Snow Indicator
  21,                                     ! Day of Month
  7,                                      ! Month
  SummerDesignDay,                        ! Day Type
  0,                                      ! Daylight Saving Time Indicator
  Enthalpy,                               ! Humidity Indicating Type
  ,                                       ! Humidity Indicating Day Schedule Name
  DefaultMultipliers,                     ! Dry-Bulb Temperature Range Modifier Type
  ,                                       ! Dry-Bulb Temperature Range Modifier Schedule Name
  ASHRAETau,                              ! Solar Model Indicator
  ,                                       ! Beam Solar Day Schedule Name
  ,                                       ! Diffuse Solar Day Schedule Name
  0.441,                                  ! ASHRAE Taub {dimensionless}
  1.907;                                  ! ASHRAE Taud {dimensionless}

OS:ComponentData,
  {6d4ddc2d-0fc2-4c95-a277-cc1c87d7b29d}, ! Handle
  Component Data 1,                       ! Name
  {c8a7f42e-ae50-49e1-8a47-3fb8a34e4e96}, ! UUID
  {ee79bf65-8f63-4905-b53c-3130d137dcab}, ! Version UUID
  1366305560,                             ! Creation Timestamp
  1366305560,                             ! Version Timestamp
  {3af4e888-dbde-40a2-9f0d-b746b52ed474}; ! Name of Object 1

