
OS:Version,
  {6a1e909b-4724-4fc6-9bd0-4bea71885869}, ! Handle
  0.9.3;                                  ! Version Identifier

OS:SizingPeriod:DesignDay,
  {45408e18-cf6b-461c-9a1b-02bafa355061}, ! Handle
  New Bern Craven Co Regl Ap Ann Htg 99% Condns DB, ! Name
  -3.1,                                   ! Maximum Dry-Bulb Temperature {C}
  0,                                      ! Daily Dry-Bulb Temperature Range {deltaC}
  -3.1,                                   ! Humidity Indicating Conditions at Maximum Dry-Bulb {BasedOnField A3}
  101265,                                 ! Barometric Pressure {Pa}
  2.3,                                    ! Wind Speed {m/s}
  10,                                     ! Wind Direction {deg}
  0,                                      ! Sky Clearness
  0,                                      ! Rain Indicator
  0,                                      ! Snow Indicator
  21,                                     ! Day of Month
  1,                                      ! Month
  WinterDesignDay,                        ! Day Type
  0,                                      ! Daylight Saving Time Indicator
  Wetbulb,                                ! Humidity Indicating Type
  ,                                       ! Humidity Indicating Day Schedule Name
  DefaultMultipliers,                     ! Dry-Bulb Temperature Range Modifier Type
  ,                                       ! Dry-Bulb Temperature Range Modifier Schedule Name
  ASHRAEClearSky;                         ! Solar Model Indicator

OS:ComponentData,
  {c15704e2-a3bc-4e75-b75a-822191afd070}, ! Handle
  Component Data 1,                       ! Name
  {4770abcc-1221-4e44-af77-aa0b48a0bcc4}, ! UUID
  {a44abb8d-ec7c-4897-be6c-651e7ff730a7}, ! Version UUID
  1366308951,                             ! Creation Timestamp
  1366308951,                             ! Version Timestamp
  {45408e18-cf6b-461c-9a1b-02bafa355061}; ! Name of Object 1

