
OS:Version,
  {452f6901-5ee6-44e8-90f0-13513f6796ad}, ! Handle
  0.9.3;                                  ! Version Identifier

OS:SizingPeriod:DesignDay,
  {525d3aab-b0d6-4964-b247-5ecc1c3efc39}, ! Handle
  STERLING Ann Clg 2% Condns DP=>MDB,     ! Name
  26.6,                                   ! Maximum Dry-Bulb Temperature {C}
  11.4,                                   ! Daily Dry-Bulb Temperature Range {deltaC}
  22.5,                                   ! Humidity Indicating Conditions at Maximum Dry-Bulb {BasedOnField A3}
  100344,                                 ! Barometric Pressure {Pa}
  4,                                      ! Wind Speed {m/s}
  290,                                    ! Wind Direction {deg}
  0,                                      ! Sky Clearness
  0,                                      ! Rain Indicator
  0,                                      ! Snow Indicator
  21,                                     ! Day of Month
  7,                                      ! Month
  SummerDesignDay,                        ! Day Type
  0,                                      ! Daylight Saving Time Indicator
  Dewpoint,                               ! Humidity Indicating Type
  ,                                       ! Humidity Indicating Day Schedule Name
  DefaultMultipliers,                     ! Dry-Bulb Temperature Range Modifier Type
  ,                                       ! Dry-Bulb Temperature Range Modifier Schedule Name
  ASHRAETau,                              ! Solar Model Indicator
  ,                                       ! Beam Solar Day Schedule Name
  ,                                       ! Diffuse Solar Day Schedule Name
  0.544,                                  ! ASHRAE Taub {dimensionless}
  1.787;                                  ! ASHRAE Taud {dimensionless}

