
OS:Version,
  {c67b858d-cb87-49d7-9d81-f0893dc6f158}, ! Handle
  0.9.3;                                  ! Version Identifier

OS:SizingPeriod:DesignDay,
  {ef257fac-7c28-4695-9b98-5babb2248e2e}, ! Handle
  Paso Robles Municipal Arpt Ann Hum_n 99% Condns DP=>MCDB, ! Name
  5.5,                                    ! Maximum Dry-Bulb Temperature {C}
  0,                                      ! Daily Dry-Bulb Temperature Range {deltaC}
  -5.9,                                   ! Humidity Indicating Conditions at Maximum Dry-Bulb {BasedOnField A3}
  98428,                                  ! Barometric Pressure {Pa}
  1,                                      ! Wind Speed {m/s}
  60,                                     ! Wind Direction {deg}
  0,                                      ! Sky Clearness
  0,                                      ! Rain Indicator
  0,                                      ! Snow Indicator
  21,                                     ! Day of Month
  12,                                     ! Month
  WinterDesignDay,                        ! Day Type
  0,                                      ! Daylight Saving Time Indicator
  Dewpoint,                               ! Humidity Indicating Type
  ,                                       ! Humidity Indicating Day Schedule Name
  DefaultMultipliers,                     ! Dry-Bulb Temperature Range Modifier Type
  ,                                       ! Dry-Bulb Temperature Range Modifier Schedule Name
  ASHRAEClearSky;                         ! Solar Model Indicator

OS:ComponentData,
  {eeadc31b-711a-4563-9acb-8316ce37a1f7}, ! Handle
  Component Data 1,                       ! Name
  {eba12420-82bf-416b-bd6a-7b95d7261753}, ! UUID
  {6a6546f8-5b64-4cdb-b0b0-5f710368d15b}, ! Version UUID
  1366306533,                             ! Creation Timestamp
  1366306533,                             ! Version Timestamp
  {ef257fac-7c28-4695-9b98-5babb2248e2e}; ! Name of Object 1

