
OS:Version,
  {00551644-0f3c-478b-b100-2e90316f930b}, ! Handle
  0.9.3;                                  ! Version Identifier

OS:SizingPeriod:DesignDay,
  {13792400-1591-4d6f-ab78-a76aa4c653f7}, ! Handle
  White Plains Westchester Co A Ann Htg 99.6% Condns DB, ! Name
  -13.5,                                  ! Maximum Dry-Bulb Temperature {C}
  0,                                      ! Daily Dry-Bulb Temperature Range {deltaC}
  -13.5,                                  ! Humidity Indicating Conditions at Maximum Dry-Bulb {BasedOnField A3}
  99868,                                  ! Barometric Pressure {Pa}
  4.9,                                    ! Wind Speed {m/s}
  320,                                    ! Wind Direction {deg}
  0,                                      ! Sky Clearness
  0,                                      ! Rain Indicator
  0,                                      ! Snow Indicator
  21,                                     ! Day of Month
  1,                                      ! Month
  WinterDesignDay,                        ! Day Type
  0,                                      ! Daylight Saving Time Indicator
  Wetbulb,                                ! Humidity Indicating Type
  ,                                       ! Humidity Indicating Day Schedule Name
  DefaultMultipliers,                     ! Dry-Bulb Temperature Range Modifier Type
  ,                                       ! Dry-Bulb Temperature Range Modifier Schedule Name
  ASHRAEClearSky;                         ! Solar Model Indicator

OS:ComponentData,
  {73a1b7cf-5227-47d9-9b70-3244f90a6f92}, ! Handle
  Component Data 1,                       ! Name
  {be15bda0-b4df-4987-af59-f751bf8be51c}, ! UUID
  {3f6d4af7-feb4-4e3a-baf0-4aaf2c6cb5fe}, ! Version UUID
  1366309754,                             ! Creation Timestamp
  1366309754,                             ! Version Timestamp
  {13792400-1591-4d6f-ab78-a76aa4c653f7}; ! Name of Object 1

