
OS:Version,
  {edb832d7-632d-4d9e-8fe7-61f917feb54e}, ! Handle
  0.9.3;                                  ! Version Identifier

OS:SizingPeriod:DesignDay,
  {22891c28-b433-48a7-90d6-bbc957c9cebc}, ! Handle
  Yuma Intl Arpt Ann Hum_n 99% Condns DP=>MCDB, ! Name
  13.3,                                   ! Maximum Dry-Bulb Temperature {C}
  0,                                      ! Daily Dry-Bulb Temperature Range {deltaC}
  -12.1,                                  ! Humidity Indicating Conditions at Maximum Dry-Bulb {BasedOnField A3}
  100570,                                 ! Barometric Pressure {Pa}
  2,                                      ! Wind Speed {m/s}
  30,                                     ! Wind Direction {deg}
  0,                                      ! Sky Clearness
  0,                                      ! Rain Indicator
  0,                                      ! Snow Indicator
  21,                                     ! Day of Month
  12,                                     ! Month
  WinterDesignDay,                        ! Day Type
  0,                                      ! Daylight Saving Time Indicator
  Dewpoint,                               ! Humidity Indicating Type
  ,                                       ! Humidity Indicating Day Schedule Name
  DefaultMultipliers,                     ! Dry-Bulb Temperature Range Modifier Type
  ,                                       ! Dry-Bulb Temperature Range Modifier Schedule Name
  ASHRAEClearSky;                         ! Solar Model Indicator

OS:ComponentData,
  {549f80c4-da46-4c01-bfcb-1611ff0be515}, ! Handle
  Component Data 1,                       ! Name
  {adf8b6c6-21f4-4b01-a277-671b7cc325e2}, ! UUID
  {43417c7d-024a-4fff-b771-baf2eef7989f}, ! Version UUID
  1366306337,                             ! Creation Timestamp
  1366306337,                             ! Version Timestamp
  {22891c28-b433-48a7-90d6-bbc957c9cebc}; ! Name of Object 1

