
OS:Version,
  {bf5e8c3d-21c6-4d33-baad-c8b8be1a6035}, ! Handle
  0.9.3;                                  ! Version Identifier

OS:SizingPeriod:DesignDay,
  {563e684f-5a68-478d-95c6-93c6f5f27db1}, ! Handle
  NORTH_BEND Ann Clg .4% Condns DB=>MWB,  ! Name
  22,                                     ! Maximum Dry-Bulb Temperature {C}
  7.3,                                    ! Daily Dry-Bulb Temperature Range {deltaC}
  15.6,                                   ! Humidity Indicating Conditions at Maximum Dry-Bulb {BasedOnField A3}
  101265,                                 ! Barometric Pressure {Pa}
  6.1,                                    ! Wind Speed {m/s}
  330,                                    ! Wind Direction {deg}
  0,                                      ! Sky Clearness
  0,                                      ! Rain Indicator
  0,                                      ! Snow Indicator
  21,                                     ! Day of Month
  8,                                      ! Month
  SummerDesignDay,                        ! Day Type
  0,                                      ! Daylight Saving Time Indicator
  Wetbulb,                                ! Humidity Indicating Type
  ,                                       ! Humidity Indicating Day Schedule Name
  DefaultMultipliers,                     ! Dry-Bulb Temperature Range Modifier Type
  ,                                       ! Dry-Bulb Temperature Range Modifier Schedule Name
  ASHRAETau,                              ! Solar Model Indicator
  ,                                       ! Beam Solar Day Schedule Name
  ,                                       ! Diffuse Solar Day Schedule Name
  0.348,                                  ! ASHRAE Taub {dimensionless}
  2.638;                                  ! ASHRAE Taud {dimensionless}

