
OS:Version,
  {8fcaa753-eccc-4abf-b38a-b9586c1d45de}, ! Handle
  0.9.3;                                  ! Version Identifier

OS:SizingPeriod:DesignDay,
  {1787a201-d8bc-48a5-83e5-70e0c7f778bf}, ! Handle
  Medford Rogue Valley Intl Ap Ann Clg 1% Condns DP=>MDB, ! Name
  23.3,                                   ! Maximum Dry-Bulb Temperature {C}
  17.9,                                   ! Daily Dry-Bulb Temperature Range {deltaC}
  14.8,                                   ! Humidity Indicating Conditions at Maximum Dry-Bulb {BasedOnField A3}
  94378,                                  ! Barometric Pressure {Pa}
  3.9,                                    ! Wind Speed {m/s}
  290,                                    ! Wind Direction {deg}
  0,                                      ! Sky Clearness
  0,                                      ! Rain Indicator
  0,                                      ! Snow Indicator
  21,                                     ! Day of Month
  7,                                      ! Month
  SummerDesignDay,                        ! Day Type
  0,                                      ! Daylight Saving Time Indicator
  Dewpoint,                               ! Humidity Indicating Type
  ,                                       ! Humidity Indicating Day Schedule Name
  DefaultMultipliers,                     ! Dry-Bulb Temperature Range Modifier Type
  ,                                       ! Dry-Bulb Temperature Range Modifier Schedule Name
  ASHRAETau,                              ! Solar Model Indicator
  ,                                       ! Beam Solar Day Schedule Name
  ,                                       ! Diffuse Solar Day Schedule Name
  0.356,                                  ! ASHRAE Taub {dimensionless}
  2.582;                                  ! ASHRAE Taud {dimensionless}

OS:ComponentData,
  {67e6fd3b-ea4f-48ab-8f6d-1454aa338151}, ! Handle
  Component Data 1,                       ! Name
  {8a54c983-3ac4-473f-a027-5e937386bf2f}, ! UUID
  {91be420c-4984-4165-b5ed-783e3ca5595f}, ! Version UUID
  1366310036,                             ! Creation Timestamp
  1366310036,                             ! Version Timestamp
  {1787a201-d8bc-48a5-83e5-70e0c7f778bf}; ! Name of Object 1

