
OS:Version,
  {13288018-32f4-4573-8c34-bf6aa87920d3}, ! Handle
  0.9.3;                                  ! Version Identifier

OS:SizingPeriod:DesignDay,
  {9c83d5b4-02c0-462f-9313-5a20098a4e4f}, ! Handle
  Topeka Ann Hum_n 99.6% Condns DP=>MCDB, ! Name
  -16.7,                                  ! Maximum Dry-Bulb Temperature {C}
  0,                                      ! Daily Dry-Bulb Temperature Range {deltaC}
  -23.1,                                  ! Humidity Indicating Conditions at Maximum Dry-Bulb {BasedOnField A3}
  98123,                                  ! Barometric Pressure {Pa}
  3.6,                                    ! Wind Speed {m/s}
  320,                                    ! Wind Direction {deg}
  0,                                      ! Sky Clearness
  0,                                      ! Rain Indicator
  0,                                      ! Snow Indicator
  21,                                     ! Day of Month
  1,                                      ! Month
  WinterDesignDay,                        ! Day Type
  0,                                      ! Daylight Saving Time Indicator
  Dewpoint,                               ! Humidity Indicating Type
  ,                                       ! Humidity Indicating Day Schedule Name
  DefaultMultipliers,                     ! Dry-Bulb Temperature Range Modifier Type
  ,                                       ! Dry-Bulb Temperature Range Modifier Schedule Name
  ASHRAEClearSky;                         ! Solar Model Indicator

OS:ComponentData,
  {c372455c-5027-4848-83ed-8f19923cf3dc}, ! Handle
  Component Data 1,                       ! Name
  {d53a0baf-5507-43bf-9cbe-59c2e38c819c}, ! UUID
  {7b7629cf-db18-40af-a177-434f52d225fa}, ! Version UUID
  1366307583,                             ! Creation Timestamp
  1366307583,                             ! Version Timestamp
  {9c83d5b4-02c0-462f-9313-5a20098a4e4f}; ! Name of Object 1

