
OS:Version,
  {3ccabb9c-a051-4bd3-8136-ce32dc43aaa9}, ! Handle
  0.9.3;                                  ! Version Identifier

OS:SizingPeriod:DesignDay,
  {7887cd83-6aa6-4d1d-bcb3-4e9ca2274688}, ! Handle
  San Diego Montgomer Ann Hum_n 99% Condns DP=>MCDB, ! Name
  15.7,                                   ! Maximum Dry-Bulb Temperature {C}
  0,                                      ! Daily Dry-Bulb Temperature Range {deltaC}
  -7.8,                                   ! Humidity Indicating Conditions at Maximum Dry-Bulb {BasedOnField A3}
  99785,                                  ! Barometric Pressure {Pa}
  0.8,                                    ! Wind Speed {m/s}
  40,                                     ! Wind Direction {deg}
  0,                                      ! Sky Clearness
  0,                                      ! Rain Indicator
  0,                                      ! Snow Indicator
  21,                                     ! Day of Month
  12,                                     ! Month
  WinterDesignDay,                        ! Day Type
  0,                                      ! Daylight Saving Time Indicator
  Dewpoint,                               ! Humidity Indicating Type
  ,                                       ! Humidity Indicating Day Schedule Name
  DefaultMultipliers,                     ! Dry-Bulb Temperature Range Modifier Type
  ,                                       ! Dry-Bulb Temperature Range Modifier Schedule Name
  ASHRAEClearSky;                         ! Solar Model Indicator

OS:ComponentData,
  {88a594fb-8abc-45ca-9c2e-60c9a4d18b97}, ! Handle
  Component Data 1,                       ! Name
  {df7d9d02-0738-4fbe-bfd2-56209d2b93e0}, ! UUID
  {288c8fa3-c8a3-4af8-832a-27121fbf4bb4}, ! Version UUID
  1366306580,                             ! Creation Timestamp
  1366306580,                             ! Version Timestamp
  {7887cd83-6aa6-4d1d-bcb3-4e9ca2274688}; ! Name of Object 1

