
OS:Version,
  {8a257ca7-9d0f-4535-9239-bbb342f73fff}, ! Handle
  0.9.3;                                  ! Version Identifier

OS:SizingPeriod:DesignDay,
  {2f410669-6e28-4139-9cf0-7dc1dbdaa9ad}, ! Handle
  Williston Sloulin Intl Ap Ann Clg 1% Condns WB=>MDB, ! Name
  29.3,                                   ! Maximum Dry-Bulb Temperature {C}
  14.5,                                   ! Daily Dry-Bulb Temperature Range {deltaC}
  20.7,                                   ! Humidity Indicating Conditions at Maximum Dry-Bulb {BasedOnField A3}
  94549,                                  ! Barometric Pressure {Pa}
  5.5,                                    ! Wind Speed {m/s}
  150,                                    ! Wind Direction {deg}
  0,                                      ! Sky Clearness
  0,                                      ! Rain Indicator
  0,                                      ! Snow Indicator
  21,                                     ! Day of Month
  7,                                      ! Month
  SummerDesignDay,                        ! Day Type
  0,                                      ! Daylight Saving Time Indicator
  Wetbulb,                                ! Humidity Indicating Type
  ,                                       ! Humidity Indicating Day Schedule Name
  DefaultMultipliers,                     ! Dry-Bulb Temperature Range Modifier Type
  ,                                       ! Dry-Bulb Temperature Range Modifier Schedule Name
  ASHRAETau,                              ! Solar Model Indicator
  ,                                       ! Beam Solar Day Schedule Name
  ,                                       ! Diffuse Solar Day Schedule Name
  0.388,                                  ! ASHRAE Taub {dimensionless}
  2.236;                                  ! ASHRAE Taud {dimensionless}

OS:ComponentData,
  {c723cf3f-3972-4d0a-847c-4dd848de0792}, ! Handle
  Component Data 1,                       ! Name
  {449d4179-7d3e-4746-b6c1-c1dc05a3bd57}, ! UUID
  {f67723a5-ca03-49fb-9cbd-07bf55851f78}, ! Version UUID
  1366309073,                             ! Creation Timestamp
  1366309073,                             ! Version Timestamp
  {2f410669-6e28-4139-9cf0-7dc1dbdaa9ad}; ! Name of Object 1

