
OS:Version,
  {867ba6a4-456e-4624-8d23-3213cdb79f71}, ! Handle
  0.9.3;                                  ! Version Identifier

OS:SizingPeriod:DesignDay,
  {3c0bfb62-b137-43a8-a2cf-fc3e38d157b5}, ! Handle
  Mitchell  Awos Ann Clg 2% Condns DP=>MDB, ! Name
  27,                                     ! Maximum Dry-Bulb Temperature {C}
  12,                                     ! Daily Dry-Bulb Temperature Range {deltaC}
  21.3,                                   ! Humidity Indicating Conditions at Maximum Dry-Bulb {BasedOnField A3}
  96646,                                  ! Barometric Pressure {Pa}
  6,                                      ! Wind Speed {m/s}
  170,                                    ! Wind Direction {deg}
  0,                                      ! Sky Clearness
  0,                                      ! Rain Indicator
  0,                                      ! Snow Indicator
  21,                                     ! Day of Month
  7,                                      ! Month
  SummerDesignDay,                        ! Day Type
  0,                                      ! Daylight Saving Time Indicator
  Dewpoint,                               ! Humidity Indicating Type
  ,                                       ! Humidity Indicating Day Schedule Name
  DefaultMultipliers,                     ! Dry-Bulb Temperature Range Modifier Type
  ,                                       ! Dry-Bulb Temperature Range Modifier Schedule Name
  ASHRAETau,                              ! Solar Model Indicator
  ,                                       ! Beam Solar Day Schedule Name
  ,                                       ! Diffuse Solar Day Schedule Name
  0.397,                                  ! ASHRAE Taub {dimensionless}
  2.269;                                  ! ASHRAE Taud {dimensionless}

OS:ComponentData,
  {6d154faf-f541-49c0-90de-99411b1ab334}, ! Handle
  Component Data 1,                       ! Name
  {c25512d0-b7e2-4603-b30b-515219000b87}, ! UUID
  {39b3214f-2325-496a-a2d9-de53915b3f20}, ! Version UUID
  1366310414,                             ! Creation Timestamp
  1366310414,                             ! Version Timestamp
  {3c0bfb62-b137-43a8-a2cf-fc3e38d157b5}; ! Name of Object 1

