
OS:Version,
  {1771d842-0303-4d9d-b4f1-07c8c9253d44}, ! Handle
  0.9.3;                                  ! Version Identifier

OS:SizingPeriod:DesignDay,
  {ad3d12e0-e1ea-4a9a-b31c-8febc8b5e8be}, ! Handle
  Toledo Express Airport Ann Hum_n 99.6% Condns DP=>MCDB, ! Name
  -17.5,                                  ! Maximum Dry-Bulb Temperature {C}
  0,                                      ! Daily Dry-Bulb Temperature Range {deltaC}
  -22.2,                                  ! Humidity Indicating Conditions at Maximum Dry-Bulb {BasedOnField A3}
  98898,                                  ! Barometric Pressure {Pa}
  4.2,                                    ! Wind Speed {m/s}
  240,                                    ! Wind Direction {deg}
  0,                                      ! Sky Clearness
  0,                                      ! Rain Indicator
  0,                                      ! Snow Indicator
  21,                                     ! Day of Month
  1,                                      ! Month
  WinterDesignDay,                        ! Day Type
  0,                                      ! Daylight Saving Time Indicator
  Dewpoint,                               ! Humidity Indicating Type
  ,                                       ! Humidity Indicating Day Schedule Name
  DefaultMultipliers,                     ! Dry-Bulb Temperature Range Modifier Type
  ,                                       ! Dry-Bulb Temperature Range Modifier Schedule Name
  ASHRAEClearSky;                         ! Solar Model Indicator

