
OS:Version,
  {acc93bde-f188-4acd-8126-5f80e38a6371}, ! Handle
  0.9.3;                                  ! Version Identifier

OS:SizingPeriod:DesignDay,
  {85a2bf7b-bb58-4969-abf8-384d96191a9c}, ! Handle
  Toledo Express Airport Ann Hum_n 99.6% Condns DP=>MCDB, ! Name
  -17.5,                                  ! Maximum Dry-Bulb Temperature {C}
  0,                                      ! Daily Dry-Bulb Temperature Range {deltaC}
  -22.2,                                  ! Humidity Indicating Conditions at Maximum Dry-Bulb {BasedOnField A3}
  98898,                                  ! Barometric Pressure {Pa}
  4.2,                                    ! Wind Speed {m/s}
  240,                                    ! Wind Direction {deg}
  0,                                      ! Sky Clearness
  0,                                      ! Rain Indicator
  0,                                      ! Snow Indicator
  21,                                     ! Day of Month
  1,                                      ! Month
  WinterDesignDay,                        ! Day Type
  0,                                      ! Daylight Saving Time Indicator
  Dewpoint,                               ! Humidity Indicating Type
  ,                                       ! Humidity Indicating Day Schedule Name
  DefaultMultipliers,                     ! Dry-Bulb Temperature Range Modifier Type
  ,                                       ! Dry-Bulb Temperature Range Modifier Schedule Name
  ASHRAEClearSky;                         ! Solar Model Indicator

OS:ComponentData,
  {c831f500-6848-499f-94e2-3a185b482499}, ! Handle
  Component Data 1,                       ! Name
  {ea0d04c9-df1e-4199-98d7-41bea2fba982}, ! UUID
  {65f9ea3d-dcf1-4321-a27a-8340fe9b27f3}, ! Version UUID
  1366309854,                             ! Creation Timestamp
  1366309854,                             ! Version Timestamp
  {85a2bf7b-bb58-4969-abf8-384d96191a9c}; ! Name of Object 1

