
OS:Version,
  {9c484440-60ca-4ccf-a394-9859ced2b032}, ! Handle
  0.9.3;                                  ! Version Identifier

OS:SizingPeriod:DesignDay,
  {cd94f9d5-2ec3-4536-9fab-62e932acb462}, ! Handle
  Oxford  Awos Ann Clg 1% Condns WB=>MDB, ! Name
  26.8,                                   ! Maximum Dry-Bulb Temperature {C}
  10.3,                                   ! Daily Dry-Bulb Temperature Range {deltaC}
  23.1,                                   ! Humidity Indicating Conditions at Maximum Dry-Bulb {BasedOnField A3}
  98686,                                  ! Barometric Pressure {Pa}
  2.7,                                    ! Wind Speed {m/s}
  300,                                    ! Wind Direction {deg}
  0,                                      ! Sky Clearness
  0,                                      ! Rain Indicator
  0,                                      ! Snow Indicator
  21,                                     ! Day of Month
  7,                                      ! Month
  SummerDesignDay,                        ! Day Type
  0,                                      ! Daylight Saving Time Indicator
  Wetbulb,                                ! Humidity Indicating Type
  ,                                       ! Humidity Indicating Day Schedule Name
  DefaultMultipliers,                     ! Dry-Bulb Temperature Range Modifier Type
  ,                                       ! Dry-Bulb Temperature Range Modifier Schedule Name
  ASHRAETau,                              ! Solar Model Indicator
  ,                                       ! Beam Solar Day Schedule Name
  ,                                       ! Diffuse Solar Day Schedule Name
  0.477,                                  ! ASHRAE Taub {dimensionless}
  1.955;                                  ! ASHRAE Taud {dimensionless}

OS:ComponentData,
  {a9b7238c-1385-46b7-9ba8-161c5dcb430b}, ! Handle
  Component Data 1,                       ! Name
  {ae645811-f025-43b0-97f8-f8a2593cdb0f}, ! UUID
  {4f365dad-94dd-49d2-88d6-64c1dc26d18c}, ! Version UUID
  1366306767,                             ! Creation Timestamp
  1366306767,                             ! Version Timestamp
  {cd94f9d5-2ec3-4536-9fab-62e932acb462}; ! Name of Object 1

