
OS:Version,
  {68a61fe7-ac36-4c3c-b087-dff5a3799b3d}, ! Handle
  0.9.3;                                  ! Version Identifier

OS:SizingPeriod:DesignDay,
  {b8e7e2a1-c608-4d91-9ff3-c725ee3fd51b}, ! Handle
  Mcalester Municipal Ap Ann Htg 99% Condns DB, ! Name
  -7,                                     ! Maximum Dry-Bulb Temperature {C}
  0,                                      ! Daily Dry-Bulb Temperature Range {deltaC}
  -7,                                     ! Humidity Indicating Conditions at Maximum Dry-Bulb {BasedOnField A3}
  98569,                                  ! Barometric Pressure {Pa}
  3.6,                                    ! Wind Speed {m/s}
  0,                                      ! Wind Direction {deg}
  0,                                      ! Sky Clearness
  0,                                      ! Rain Indicator
  0,                                      ! Snow Indicator
  21,                                     ! Day of Month
  1,                                      ! Month
  WinterDesignDay,                        ! Day Type
  0,                                      ! Daylight Saving Time Indicator
  Wetbulb,                                ! Humidity Indicating Type
  ,                                       ! Humidity Indicating Day Schedule Name
  DefaultMultipliers,                     ! Dry-Bulb Temperature Range Modifier Type
  ,                                       ! Dry-Bulb Temperature Range Modifier Schedule Name
  ASHRAEClearSky;                         ! Solar Model Indicator

OS:ComponentData,
  {5164cfc4-9fa2-41ad-8c54-938b879b4b3f}, ! Handle
  Component Data 1,                       ! Name
  {3c4a8841-fde5-4a72-bebe-9138952073e4}, ! UUID
  {94006ed6-4de5-4aad-b707-28e56ba0e8e6}, ! Version UUID
  1366309906,                             ! Creation Timestamp
  1366309906,                             ! Version Timestamp
  {b8e7e2a1-c608-4d91-9ff3-c725ee3fd51b}; ! Name of Object 1

