
OS:Version,
  {fff9ff62-590f-429d-b24f-c4969668d923}, ! Handle
  0.9.3;                                  ! Version Identifier

OS:SizingPeriod:DesignDay,
  {17a0ef86-ce1f-4bc2-94a2-ca0eb86434e1}, ! Handle
  Oxnard/Point Mugu NF Ann Clg 2% Condns WB=>MDB, ! Name
  22.8,                                   ! Maximum Dry-Bulb Temperature {C}
  7.8,                                    ! Daily Dry-Bulb Temperature Range {deltaC}
  19.5,                                   ! Humidity Indicating Conditions at Maximum Dry-Bulb {BasedOnField A3}
  101289,                                 ! Barometric Pressure {Pa}
  5.2,                                    ! Wind Speed {m/s}
  50,                                     ! Wind Direction {deg}
  0,                                      ! Sky Clearness
  0,                                      ! Rain Indicator
  0,                                      ! Snow Indicator
  21,                                     ! Day of Month
  8,                                      ! Month
  SummerDesignDay,                        ! Day Type
  0,                                      ! Daylight Saving Time Indicator
  Wetbulb,                                ! Humidity Indicating Type
  ,                                       ! Humidity Indicating Day Schedule Name
  DefaultMultipliers,                     ! Dry-Bulb Temperature Range Modifier Type
  ,                                       ! Dry-Bulb Temperature Range Modifier Schedule Name
  ASHRAETau,                              ! Solar Model Indicator
  ,                                       ! Beam Solar Day Schedule Name
  ,                                       ! Diffuse Solar Day Schedule Name
  0.425,                                  ! ASHRAE Taub {dimensionless}
  2.2;                                    ! ASHRAE Taud {dimensionless}

OS:ComponentData,
  {59ebc79c-2bf9-495f-a5a9-e1482ddb4b01}, ! Handle
  Component Data 1,                       ! Name
  {92304be5-f5a5-4d64-abc4-0ee594ddd10f}, ! UUID
  {a484ecbe-7fae-4941-bbdb-cb6caf77f8bd}, ! Version UUID
  1366306536,                             ! Creation Timestamp
  1366306536,                             ! Version Timestamp
  {17a0ef86-ce1f-4bc2-94a2-ca0eb86434e1}; ! Name of Object 1

