
OS:Version,
  {0620def7-08c1-40f7-b498-01a7da09e3a1}, ! Handle
  0.9.3;                                  ! Version Identifier

OS:SizingPeriod:DesignDay,
  {6ad127f9-550e-42fd-8fd4-963e30cef45e}, ! Handle
  PORTLAND Ann Clg 2% Condns Enth=>MDB,   ! Name
  25.1,                                   ! Maximum Dry-Bulb Temperature {C}
  10,                                     ! Daily Dry-Bulb Temperature Range {deltaC}
  61500,                                  ! Humidity Indicating Conditions at Maximum Dry-Bulb {BasedOnField A3}
  101097,                                 ! Barometric Pressure {Pa}
  4.9,                                    ! Wind Speed {m/s}
  260,                                    ! Wind Direction {deg}
  0,                                      ! Sky Clearness
  0,                                      ! Rain Indicator
  0,                                      ! Snow Indicator
  21,                                     ! Day of Month
  7,                                      ! Month
  SummerDesignDay,                        ! Day Type
  0,                                      ! Daylight Saving Time Indicator
  Enthalpy,                               ! Humidity Indicating Type
  ,                                       ! Humidity Indicating Day Schedule Name
  DefaultMultipliers,                     ! Dry-Bulb Temperature Range Modifier Type
  ,                                       ! Dry-Bulb Temperature Range Modifier Schedule Name
  ASHRAETau,                              ! Solar Model Indicator
  ,                                       ! Beam Solar Day Schedule Name
  ,                                       ! Diffuse Solar Day Schedule Name
  0.477,                                  ! ASHRAE Taub {dimensionless}
  1.97;                                   ! ASHRAE Taud {dimensionless}

OS:ComponentData,
  {b5e35942-8bcd-4333-8841-aec443735270}, ! Handle
  Component Data 1,                       ! Name
  {d37d174e-a4aa-429a-b3b1-4e3df4aa5bf4}, ! UUID
  {7dca1dd0-3356-4099-a29c-e81f3a7150d6}, ! Version UUID
  1366307908,                             ! Creation Timestamp
  1366307908,                             ! Version Timestamp
  {6ad127f9-550e-42fd-8fd4-963e30cef45e}; ! Name of Object 1

