
OS:Version,
  {bc54394d-14cf-4242-837d-6582c17bcfa7}, ! Handle
  0.9.3;                                  ! Version Identifier

OS:SizingPeriod:DesignDay,
  {f1aa58c5-2118-4c11-9e0a-4e4e73916dc8}, ! Handle
  SAN_DIEGO Ann Clg 2% Condns DP=>MDB,    ! Name
  23.4,                                   ! Maximum Dry-Bulb Temperature {C}
  4.9,                                    ! Daily Dry-Bulb Temperature Range {deltaC}
  19.7,                                   ! Humidity Indicating Conditions at Maximum Dry-Bulb {BasedOnField A3}
  101217,                                 ! Barometric Pressure {Pa}
  4.6,                                    ! Wind Speed {m/s}
  300,                                    ! Wind Direction {deg}
  0,                                      ! Sky Clearness
  0,                                      ! Rain Indicator
  0,                                      ! Snow Indicator
  21,                                     ! Day of Month
  8,                                      ! Month
  SummerDesignDay,                        ! Day Type
  0,                                      ! Daylight Saving Time Indicator
  Dewpoint,                               ! Humidity Indicating Type
  ,                                       ! Humidity Indicating Day Schedule Name
  DefaultMultipliers,                     ! Dry-Bulb Temperature Range Modifier Type
  ,                                       ! Dry-Bulb Temperature Range Modifier Schedule Name
  ASHRAETau,                              ! Solar Model Indicator
  ,                                       ! Beam Solar Day Schedule Name
  ,                                       ! Diffuse Solar Day Schedule Name
  0.426,                                  ! ASHRAE Taub {dimensionless}
  2.214;                                  ! ASHRAE Taud {dimensionless}

OS:ComponentData,
  {93035c00-28f6-4870-beff-2610bfd32295}, ! Handle
  Component Data 1,                       ! Name
  {ae8d3a1e-4a72-4dbc-9922-303473ab0084}, ! UUID
  {e35b416d-c4b9-4736-8d12-d7c0eab5aaa2}, ! Version UUID
  1366306587,                             ! Creation Timestamp
  1366306587,                             ! Version Timestamp
  {f1aa58c5-2118-4c11-9e0a-4e4e73916dc8}; ! Name of Object 1

