
OS:Version,
  {b46d20c9-95ba-4d68-bd49-c767a986aabb}, ! Handle
  0.9.3;                                  ! Version Identifier

OS:SizingPeriod:DesignDay,
  {f4560e1c-dfa8-45bc-9797-bdd8b7b12554}, ! Handle
  Sand Point Ann Htg Wind 99% Condns WS=>MCDB, ! Name
  -5.6,                                   ! Maximum Dry-Bulb Temperature {C}
  0,                                      ! Daily Dry-Bulb Temperature Range {deltaC}
  -5.6,                                   ! Humidity Indicating Conditions at Maximum Dry-Bulb {BasedOnField A3}
  101241,                                 ! Barometric Pressure {Pa}
  17.1,                                   ! Wind Speed {m/s}
  340,                                    ! Wind Direction {deg}
  0,                                      ! Sky Clearness
  0,                                      ! Rain Indicator
  0,                                      ! Snow Indicator
  21,                                     ! Day of Month
  1,                                      ! Month
  WinterDesignDay,                        ! Day Type
  0,                                      ! Daylight Saving Time Indicator
  Wetbulb,                                ! Humidity Indicating Type
  ,                                       ! Humidity Indicating Day Schedule Name
  DefaultMultipliers,                     ! Dry-Bulb Temperature Range Modifier Type
  ,                                       ! Dry-Bulb Temperature Range Modifier Schedule Name
  ASHRAEClearSky;                         ! Solar Model Indicator

OS:ComponentData,
  {9495ea4d-3e84-466d-8fc8-d824e199e319}, ! Handle
  Component Data 1,                       ! Name
  {ca89fae9-c949-4eaa-91ec-3d68b6f54fb1}, ! UUID
  {da2a8f3b-691f-4098-aee6-6361538c37bb}, ! Version UUID
  1366305520,                             ! Creation Timestamp
  1366305520,                             ! Version Timestamp
  {f4560e1c-dfa8-45bc-9797-bdd8b7b12554}; ! Name of Object 1

