
OS:Version,
  {bdf5d724-4e1b-462f-a9e9-1edae5838a26}, ! Handle
  0.9.3;                                  ! Version Identifier

OS:SizingPeriod:DesignDay,
  {7c6a560b-1e52-463f-9430-81ed3e625d1b}, ! Handle
  Snohomish Co Ann Clg 1% Condns WB=>MDB, ! Name
  23,                                     ! Maximum Dry-Bulb Temperature {C}
  9,                                      ! Daily Dry-Bulb Temperature Range {deltaC}
  17.5,                                   ! Humidity Indicating Conditions at Maximum Dry-Bulb {BasedOnField A3}
  99075,                                  ! Barometric Pressure {Pa}
  3.2,                                    ! Wind Speed {m/s}
  350,                                    ! Wind Direction {deg}
  0,                                      ! Sky Clearness
  0,                                      ! Rain Indicator
  0,                                      ! Snow Indicator
  21,                                     ! Day of Month
  8,                                      ! Month
  SummerDesignDay,                        ! Day Type
  0,                                      ! Daylight Saving Time Indicator
  Wetbulb,                                ! Humidity Indicating Type
  ,                                       ! Humidity Indicating Day Schedule Name
  DefaultMultipliers,                     ! Dry-Bulb Temperature Range Modifier Type
  ,                                       ! Dry-Bulb Temperature Range Modifier Schedule Name
  ASHRAETau,                              ! Solar Model Indicator
  ,                                       ! Beam Solar Day Schedule Name
  ,                                       ! Diffuse Solar Day Schedule Name
  0.351,                                  ! ASHRAE Taub {dimensionless}
  2.554;                                  ! ASHRAE Taud {dimensionless}

OS:ComponentData,
  {ec838abe-9fe7-4c6f-aed4-06b5dcd9437d}, ! Handle
  Component Data 1,                       ! Name
  {592720fc-cefb-4cbb-b749-57fd85e87955}, ! UUID
  {d50a27a5-320d-4925-aafe-6209e51bac2d}, ! Version UUID
  1366311371,                             ! Creation Timestamp
  1366311371,                             ! Version Timestamp
  {7c6a560b-1e52-463f-9430-81ed3e625d1b}; ! Name of Object 1

