
OS:Version,
  {6067766b-3b77-4c56-be6a-76f35076df04}, ! Handle
  0.9.3;                                  ! Version Identifier

OS:SizingPeriod:DesignDay,
  {d5e66583-751e-4e89-b9fa-88b3225d785c}, ! Handle
  Philadelphia International Ap Ann Clg 2% Condns DB=>MWB, ! Name
  31.1,                                   ! Maximum Dry-Bulb Temperature {C}
  9.4,                                    ! Daily Dry-Bulb Temperature Range {deltaC}
  22.8,                                   ! Humidity Indicating Conditions at Maximum Dry-Bulb {BasedOnField A3}
  101301,                                 ! Barometric Pressure {Pa}
  5,                                      ! Wind Speed {m/s}
  240,                                    ! Wind Direction {deg}
  0,                                      ! Sky Clearness
  0,                                      ! Rain Indicator
  0,                                      ! Snow Indicator
  21,                                     ! Day of Month
  7,                                      ! Month
  SummerDesignDay,                        ! Day Type
  0,                                      ! Daylight Saving Time Indicator
  Wetbulb,                                ! Humidity Indicating Type
  ,                                       ! Humidity Indicating Day Schedule Name
  DefaultMultipliers,                     ! Dry-Bulb Temperature Range Modifier Type
  ,                                       ! Dry-Bulb Temperature Range Modifier Schedule Name
  ASHRAETau,                              ! Solar Model Indicator
  ,                                       ! Beam Solar Day Schedule Name
  ,                                       ! Diffuse Solar Day Schedule Name
  0.55,                                   ! ASHRAE Taub {dimensionless}
  1.776;                                  ! ASHRAE Taud {dimensionless}

OS:ComponentData,
  {4aea741c-a959-47e0-b7e8-f19343576fd5}, ! Handle
  Component Data 1,                       ! Name
  {19fefe86-343b-4449-9f46-bbe5b0a98dbb}, ! UUID
  {06d9c002-db99-49ac-a628-5228d58b8882}, ! Version UUID
  1366310223,                             ! Creation Timestamp
  1366310223,                             ! Version Timestamp
  {d5e66583-751e-4e89-b9fa-88b3225d785c}; ! Name of Object 1

