
OS:Version,
  {6aa2eaa7-a368-44aa-8dbf-ad6708898c52}, ! Handle
  0.9.3;                                  ! Version Identifier

OS:SizingPeriod:DesignDay,
  {2f423256-5b3e-40c3-b494-37eca87a3f79}, ! Handle
  ST._LOUIS Ann Hum_n 99.6% Condns DP=>MCDB, ! Name
  -14.5,                                  ! Maximum Dry-Bulb Temperature {C}
  0,                                      ! Daily Dry-Bulb Temperature Range {deltaC}
  -21.4,                                  ! Humidity Indicating Conditions at Maximum Dry-Bulb {BasedOnField A3}
  99276,                                  ! Barometric Pressure {Pa}
  4.7,                                    ! Wind Speed {m/s}
  300,                                    ! Wind Direction {deg}
  0,                                      ! Sky Clearness
  0,                                      ! Rain Indicator
  0,                                      ! Snow Indicator
  21,                                     ! Day of Month
  1,                                      ! Month
  WinterDesignDay,                        ! Day Type
  0,                                      ! Daylight Saving Time Indicator
  Dewpoint,                               ! Humidity Indicating Type
  ,                                       ! Humidity Indicating Day Schedule Name
  DefaultMultipliers,                     ! Dry-Bulb Temperature Range Modifier Type
  ,                                       ! Dry-Bulb Temperature Range Modifier Schedule Name
  ASHRAEClearSky;                         ! Solar Model Indicator

OS:ComponentData,
  {b2d3e7c4-8d5a-4d42-a528-e4affca60bf2}, ! Handle
  Component Data 1,                       ! Name
  {a603af5f-af74-4269-a267-5e07c0cf996d}, ! UUID
  {83e2dd65-8e5e-47cf-b93c-39df564398f2}, ! Version UUID
  1366308595,                             ! Creation Timestamp
  1366308595,                             ! Version Timestamp
  {2f423256-5b3e-40c3-b494-37eca87a3f79}; ! Name of Object 1

