
OS:Version,
  {1ef4ec6b-87d0-4edb-9a00-c1dd85a80017}, ! Handle
  0.9.3;                                  ! Version Identifier

OS:SizingPeriod:DesignDay,
  {0eb81016-7abd-4c9c-87f5-64cfad01d0ee}, ! Handle
  Morris Muni  Awos Ann Htg 99% Condns DB, ! Name
  -25.1,                                  ! Maximum Dry-Bulb Temperature {C}
  0,                                      ! Daily Dry-Bulb Temperature Range {deltaC}
  -25.1,                                  ! Humidity Indicating Conditions at Maximum Dry-Bulb {BasedOnField A3}
  97260,                                  ! Barometric Pressure {Pa}
  3.7,                                    ! Wind Speed {m/s}
  310,                                    ! Wind Direction {deg}
  0,                                      ! Sky Clearness
  0,                                      ! Rain Indicator
  0,                                      ! Snow Indicator
  21,                                     ! Day of Month
  1,                                      ! Month
  WinterDesignDay,                        ! Day Type
  0,                                      ! Daylight Saving Time Indicator
  Wetbulb,                                ! Humidity Indicating Type
  ,                                       ! Humidity Indicating Day Schedule Name
  DefaultMultipliers,                     ! Dry-Bulb Temperature Range Modifier Type
  ,                                       ! Dry-Bulb Temperature Range Modifier Schedule Name
  ASHRAEClearSky;                         ! Solar Model Indicator

OS:ComponentData,
  {0d431ada-aadd-4a2d-a4f3-756ecf7f1082}, ! Handle
  Component Data 1,                       ! Name
  {36fb2f48-d8f6-42a0-bd7d-4e4f52ff7baf}, ! UUID
  {4b927bc3-c049-4ac6-9690-7492b345f498}, ! Version UUID
  1366308334,                             ! Creation Timestamp
  1366308334,                             ! Version Timestamp
  {0eb81016-7abd-4c9c-87f5-64cfad01d0ee}; ! Name of Object 1

