
OS:Version,
  {3ee5b92f-8370-4877-8984-3a6738fe95bf}, ! Handle
  0.9.3;                                  ! Version Identifier

OS:SizingPeriod:DesignDay,
  {6d401818-f4f0-4018-bca6-176d8dda0868}, ! Handle
  Valparaiso Elgin Afb Ann Hum_n 99.6% Condns DP=>MCDB, ! Name
  4,                                      ! Maximum Dry-Bulb Temperature {C}
  0,                                      ! Daily Dry-Bulb Temperature Range {deltaC}
  -11.2,                                  ! Humidity Indicating Conditions at Maximum Dry-Bulb {BasedOnField A3}
  101085,                                 ! Barometric Pressure {Pa}
  3.1,                                    ! Wind Speed {m/s}
  0,                                      ! Wind Direction {deg}
  0,                                      ! Sky Clearness
  0,                                      ! Rain Indicator
  0,                                      ! Snow Indicator
  21,                                     ! Day of Month
  1,                                      ! Month
  WinterDesignDay,                        ! Day Type
  0,                                      ! Daylight Saving Time Indicator
  Dewpoint,                               ! Humidity Indicating Type
  ,                                       ! Humidity Indicating Day Schedule Name
  DefaultMultipliers,                     ! Dry-Bulb Temperature Range Modifier Type
  ,                                       ! Dry-Bulb Temperature Range Modifier Schedule Name
  ASHRAEClearSky;                         ! Solar Model Indicator

OS:ComponentData,
  {73675696-4b9e-4575-9097-0906cbae4779}, ! Handle
  Component Data 1,                       ! Name
  {301bd3fa-0b65-42d1-8994-992e535c65fb}, ! UUID
  {18ce4fd5-e611-4f24-9d07-1a3a740d5e60}, ! Version UUID
  1366306942,                             ! Creation Timestamp
  1366306942,                             ! Version Timestamp
  {6d401818-f4f0-4018-bca6-176d8dda0868}; ! Name of Object 1

