
OS:Version,
  {880b07b5-be3f-4d65-9d43-7784611d1046}, ! Handle
  0.9.3;                                  ! Version Identifier

OS:SizingPeriod:DesignDay,
  {b50becff-d186-4b18-b147-51ce6324469e}, ! Handle
  PROVIDENCE Ann Clg 1% Condns WB=>MDB,   ! Name
  27.8,                                   ! Maximum Dry-Bulb Temperature {C}
  9.6,                                    ! Daily Dry-Bulb Temperature Range {deltaC}
  23.8,                                   ! Humidity Indicating Conditions at Maximum Dry-Bulb {BasedOnField A3}
  101097,                                 ! Barometric Pressure {Pa}
  5.5,                                    ! Wind Speed {m/s}
  280,                                    ! Wind Direction {deg}
  0,                                      ! Sky Clearness
  0,                                      ! Rain Indicator
  0,                                      ! Snow Indicator
  21,                                     ! Day of Month
  7,                                      ! Month
  SummerDesignDay,                        ! Day Type
  0,                                      ! Daylight Saving Time Indicator
  Wetbulb,                                ! Humidity Indicating Type
  ,                                       ! Humidity Indicating Day Schedule Name
  DefaultMultipliers,                     ! Dry-Bulb Temperature Range Modifier Type
  ,                                       ! Dry-Bulb Temperature Range Modifier Schedule Name
  ASHRAETau,                              ! Solar Model Indicator
  ,                                       ! Beam Solar Day Schedule Name
  ,                                       ! Diffuse Solar Day Schedule Name
  0.507,                                  ! ASHRAE Taub {dimensionless}
  1.885;                                  ! ASHRAE Taud {dimensionless}

OS:ComponentData,
  {10e51bd4-2cff-4d8a-94f5-6585e23d02f0}, ! Handle
  Component Data 1,                       ! Name
  {1cf585d1-4811-4e51-9d32-563d484aa768}, ! UUID
  {6d6cd3b6-fe79-48f5-bc9b-b8245e7435e5}, ! Version UUID
  1366310308,                             ! Creation Timestamp
  1366310308,                             ! Version Timestamp
  {b50becff-d186-4b18-b147-51ce6324469e}; ! Name of Object 1

