
OS:Version,
  {42eee0b2-8e8e-4cf8-bcde-d1b7d9b352dd}, ! Handle
  0.9.3;                                  ! Version Identifier

OS:SizingPeriod:DesignDay,
  {36f995d7-e5d4-47be-906c-440343de9268}, ! Handle
  Vance Afb Ann Clg 2% Condns WB=>MDB,    ! Name
  32.1,                                   ! Maximum Dry-Bulb Temperature {C}
  12.3,                                   ! Daily Dry-Bulb Temperature Range {deltaC}
  24.1,                                   ! Humidity Indicating Conditions at Maximum Dry-Bulb {BasedOnField A3}
  96519,                                  ! Barometric Pressure {Pa}
  5.5,                                    ! Wind Speed {m/s}
  190,                                    ! Wind Direction {deg}
  0,                                      ! Sky Clearness
  0,                                      ! Rain Indicator
  0,                                      ! Snow Indicator
  21,                                     ! Day of Month
  7,                                      ! Month
  SummerDesignDay,                        ! Day Type
  0,                                      ! Daylight Saving Time Indicator
  Wetbulb,                                ! Humidity Indicating Type
  ,                                       ! Humidity Indicating Day Schedule Name
  DefaultMultipliers,                     ! Dry-Bulb Temperature Range Modifier Type
  ,                                       ! Dry-Bulb Temperature Range Modifier Schedule Name
  ASHRAETau,                              ! Solar Model Indicator
  ,                                       ! Beam Solar Day Schedule Name
  ,                                       ! Diffuse Solar Day Schedule Name
  0.425,                                  ! ASHRAE Taub {dimensionless}
  2.194;                                  ! ASHRAE Taud {dimensionless}

OS:ComponentData,
  {1688ef53-48e4-45ee-8c91-7dc61048abd8}, ! Handle
  Component Data 1,                       ! Name
  {9fbaa60a-a09a-4771-a36d-583b0656df65}, ! UUID
  {f9dc9b37-7520-4d18-8046-27be16a3d5fe}, ! Version UUID
  1366309963,                             ! Creation Timestamp
  1366309963,                             ! Version Timestamp
  {36f995d7-e5d4-47be-906c-440343de9268}; ! Name of Object 1

