
OS:Version,
  {dd5db946-c26b-47d3-97b7-ef7e24d3540d}, ! Handle
  0.9.3;                                  ! Version Identifier

OS:SizingPeriod:DesignDay,
  {a04f6115-bcc6-4ad9-b91f-9d6f96cf938a}, ! Handle
  PORTLAND Ann Htg 99.6% Condns DB,       ! Name
  -4.5,                                   ! Maximum Dry-Bulb Temperature {C}
  0,                                      ! Daily Dry-Bulb Temperature Range {deltaC}
  -4.5,                                   ! Humidity Indicating Conditions at Maximum Dry-Bulb {BasedOnField A3}
  101181,                                 ! Barometric Pressure {Pa}
  5.1,                                    ! Wind Speed {m/s}
  120,                                    ! Wind Direction {deg}
  0,                                      ! Sky Clearness
  0,                                      ! Rain Indicator
  0,                                      ! Snow Indicator
  21,                                     ! Day of Month
  12,                                     ! Month
  WinterDesignDay,                        ! Day Type
  0,                                      ! Daylight Saving Time Indicator
  Wetbulb,                                ! Humidity Indicating Type
  ,                                       ! Humidity Indicating Day Schedule Name
  DefaultMultipliers,                     ! Dry-Bulb Temperature Range Modifier Type
  ,                                       ! Dry-Bulb Temperature Range Modifier Schedule Name
  ASHRAEClearSky;                         ! Solar Model Indicator

OS:ComponentData,
  {1019e288-34d5-486a-894a-612f62438d3c}, ! Handle
  Component Data 1,                       ! Name
  {798dc239-f45b-4aed-98a1-165e6c9ccecf}, ! UUID
  {33435ca6-1fc3-4185-91ea-889212bdf66c}, ! Version UUID
  1366310073,                             ! Creation Timestamp
  1366310073,                             ! Version Timestamp
  {a04f6115-bcc6-4ad9-b91f-9d6f96cf938a}; ! Name of Object 1

