
OS:Version,
  {dc2262be-464d-44d5-baa2-164d481bf385}, ! Handle
  0.9.3;                                  ! Version Identifier

OS:SizingPeriod:DesignDay,
  {b3ba24a3-b437-4410-8fa3-53e552853f1e}, ! Handle
  Washington Dc Dulles IntL Ar Ann Htg Wind 99% Condns WS=>MCDB, ! Name
  0.6,                                    ! Maximum Dry-Bulb Temperature {C}
  0,                                      ! Daily Dry-Bulb Temperature Range {deltaC}
  0.6,                                    ! Humidity Indicating Conditions at Maximum Dry-Bulb {BasedOnField A3}
  100344,                                 ! Barometric Pressure {Pa}
  10.3,                                   ! Wind Speed {m/s}
  310,                                    ! Wind Direction {deg}
  0,                                      ! Sky Clearness
  0,                                      ! Rain Indicator
  0,                                      ! Snow Indicator
  21,                                     ! Day of Month
  1,                                      ! Month
  WinterDesignDay,                        ! Day Type
  0,                                      ! Daylight Saving Time Indicator
  Wetbulb,                                ! Humidity Indicating Type
  ,                                       ! Humidity Indicating Day Schedule Name
  DefaultMultipliers,                     ! Dry-Bulb Temperature Range Modifier Type
  ,                                       ! Dry-Bulb Temperature Range Modifier Schedule Name
  ASHRAEClearSky;                         ! Solar Model Indicator

OS:ComponentData,
  {a0e3e853-5325-4f64-8331-35029d34412a}, ! Handle
  Component Data 1,                       ! Name
  {a71e2e87-a3d3-4397-ac76-6d96d7d9e029}, ! UUID
  {11c559cc-c6e6-466f-b889-11b8ffa62197}, ! Version UUID
  1366311217,                             ! Creation Timestamp
  1366311217,                             ! Version Timestamp
  {b3ba24a3-b437-4410-8fa3-53e552853f1e}; ! Name of Object 1

