
OS:Version,
  {74a57bf3-f3b9-4236-8122-4d04d44497f8}, ! Handle
  0.9.3;                                  ! Version Identifier

OS:SizingPeriod:DesignDay,
  {c673ceba-4f39-4b6e-ac46-a7c408fe0597}, ! Handle
  Southern Pines Awos Ann Htg 99.6% Condns DB, ! Name
  -7.3,                                   ! Maximum Dry-Bulb Temperature {C}
  0,                                      ! Daily Dry-Bulb Temperature Range {deltaC}
  -7.3,                                   ! Humidity Indicating Conditions at Maximum Dry-Bulb {BasedOnField A3}
  99643,                                  ! Barometric Pressure {Pa}
  1.1,                                    ! Wind Speed {m/s}
  260,                                    ! Wind Direction {deg}
  0,                                      ! Sky Clearness
  0,                                      ! Rain Indicator
  0,                                      ! Snow Indicator
  21,                                     ! Day of Month
  1,                                      ! Month
  WinterDesignDay,                        ! Day Type
  0,                                      ! Daylight Saving Time Indicator
  Wetbulb,                                ! Humidity Indicating Type
  ,                                       ! Humidity Indicating Day Schedule Name
  DefaultMultipliers,                     ! Dry-Bulb Temperature Range Modifier Type
  ,                                       ! Dry-Bulb Temperature Range Modifier Schedule Name
  ASHRAEClearSky;                         ! Solar Model Indicator

OS:ComponentData,
  {46b72cc3-803c-4cbc-8649-2258e8baf55a}, ! Handle
  Component Data 1,                       ! Name
  {426a38ce-0174-4e5c-a756-eaabdf353f57}, ! UUID
  {054c2196-b00f-458a-8610-aa1e9f0149d9}, ! Version UUID
  1366308978,                             ! Creation Timestamp
  1366308978,                             ! Version Timestamp
  {c673ceba-4f39-4b6e-ac46-a7c408fe0597}; ! Name of Object 1

