
OS:Version,
  {118211fc-9f6d-43db-aa9a-ac5c97903512}, ! Handle
  0.9.3;                                  ! Version Identifier

OS:SizingPeriod:DesignDay,
  {b864b9f4-8c38-45b7-a54e-275a3b74e8eb}, ! Handle
  Northern Aroostook Ann Clg 2% Condns Enth=>MDB, ! Name
  22.2,                                   ! Maximum Dry-Bulb Temperature {C}
  9.3,                                    ! Daily Dry-Bulb Temperature Range {deltaC}
  55800,                                  ! Humidity Indicating Conditions at Maximum Dry-Bulb {BasedOnField A3}
  97668,                                  ! Barometric Pressure {Pa}
  4.3,                                    ! Wind Speed {m/s}
  230,                                    ! Wind Direction {deg}
  0,                                      ! Sky Clearness
  0,                                      ! Rain Indicator
  0,                                      ! Snow Indicator
  21,                                     ! Day of Month
  7,                                      ! Month
  SummerDesignDay,                        ! Day Type
  0,                                      ! Daylight Saving Time Indicator
  Enthalpy,                               ! Humidity Indicating Type
  ,                                       ! Humidity Indicating Day Schedule Name
  DefaultMultipliers,                     ! Dry-Bulb Temperature Range Modifier Type
  ,                                       ! Dry-Bulb Temperature Range Modifier Schedule Name
  ASHRAETau,                              ! Solar Model Indicator
  ,                                       ! Beam Solar Day Schedule Name
  ,                                       ! Diffuse Solar Day Schedule Name
  0.416,                                  ! ASHRAE Taub {dimensionless}
  2.144;                                  ! ASHRAE Taud {dimensionless}

OS:ComponentData,
  {0c8b69bb-7a07-493a-b27f-e1d5c28db042}, ! Handle
  Component Data 1,                       ! Name
  {a5601671-0efa-4ee5-aa28-20cb72fa8ae4}, ! UUID
  {8c2225d6-9731-4e90-a7b3-6e1679ed4097}, ! Version UUID
  1366307899,                             ! Creation Timestamp
  1366307899,                             ! Version Timestamp
  {b864b9f4-8c38-45b7-a54e-275a3b74e8eb}; ! Name of Object 1

