
OS:Version,
  {7fea4bac-de5b-4acd-9097-d7739901875a}, ! Handle
  0.9.3;                                  ! Version Identifier

OS:SizingPeriod:DesignDay,
  {2a384d28-7bd0-4916-936d-692179a5a273}, ! Handle
  Mcalester Municipal Ap Ann Clg 2% Condns DB=>MWB, ! Name
  34.2,                                   ! Maximum Dry-Bulb Temperature {C}
  11.2,                                   ! Daily Dry-Bulb Temperature Range {deltaC}
  24.2,                                   ! Humidity Indicating Conditions at Maximum Dry-Bulb {BasedOnField A3}
  98569,                                  ! Barometric Pressure {Pa}
  3.9,                                    ! Wind Speed {m/s}
  200,                                    ! Wind Direction {deg}
  0,                                      ! Sky Clearness
  0,                                      ! Rain Indicator
  0,                                      ! Snow Indicator
  21,                                     ! Day of Month
  7,                                      ! Month
  SummerDesignDay,                        ! Day Type
  0,                                      ! Daylight Saving Time Indicator
  Wetbulb,                                ! Humidity Indicating Type
  ,                                       ! Humidity Indicating Day Schedule Name
  DefaultMultipliers,                     ! Dry-Bulb Temperature Range Modifier Type
  ,                                       ! Dry-Bulb Temperature Range Modifier Schedule Name
  ASHRAETau,                              ! Solar Model Indicator
  ,                                       ! Beam Solar Day Schedule Name
  ,                                       ! Diffuse Solar Day Schedule Name
  0.459,                                  ! ASHRAE Taub {dimensionless}
  2.091;                                  ! ASHRAE Taud {dimensionless}

OS:ComponentData,
  {e027402c-a1c3-466a-a1ea-a46c41e9041c}, ! Handle
  Component Data 1,                       ! Name
  {cf0289f2-0ecb-4109-a9b5-33b556eba954}, ! UUID
  {3a3e8af2-09ef-4cb7-81b5-9a2461fac55e}, ! Version UUID
  1366309908,                             ! Creation Timestamp
  1366309908,                             ! Version Timestamp
  {2a384d28-7bd0-4916-936d-692179a5a273}; ! Name of Object 1

