
OS:Version,
  {f29817e6-ded4-4977-922c-7464cfa93f18}, ! Handle
  0.9.3;                                  ! Version Identifier

OS:SizingPeriod:DesignDay,
  {d2d4fe4a-3b86-491a-8853-91c467181fc2}, ! Handle
  Trenton Mercer County Ap Ann Htg 99% Condns DB, ! Name
  -9.9,                                   ! Maximum Dry-Bulb Temperature {C}
  0,                                      ! Daily Dry-Bulb Temperature Range {deltaC}
  -9.9,                                   ! Humidity Indicating Conditions at Maximum Dry-Bulb {BasedOnField A3}
  100547,                                 ! Barometric Pressure {Pa}
  4,                                      ! Wind Speed {m/s}
  330,                                    ! Wind Direction {deg}
  0,                                      ! Sky Clearness
  0,                                      ! Rain Indicator
  0,                                      ! Snow Indicator
  21,                                     ! Day of Month
  1,                                      ! Month
  WinterDesignDay,                        ! Day Type
  0,                                      ! Daylight Saving Time Indicator
  Wetbulb,                                ! Humidity Indicating Type
  ,                                       ! Humidity Indicating Day Schedule Name
  DefaultMultipliers,                     ! Dry-Bulb Temperature Range Modifier Type
  ,                                       ! Dry-Bulb Temperature Range Modifier Schedule Name
  ASHRAEClearSky;                         ! Solar Model Indicator

OS:ComponentData,
  {e6c26daa-6af0-4a09-9d31-4a23a8286d2f}, ! Handle
  Component Data 1,                       ! Name
  {6c73ebae-5ac3-49c5-8f67-5392afba4602}, ! UUID
  {2f7153d6-c787-401f-a927-457e5984c4b5}, ! Version UUID
  1366309349,                             ! Creation Timestamp
  1366309349,                             ! Version Timestamp
  {d2d4fe4a-3b86-491a-8853-91c467181fc2}; ! Name of Object 1

