
OS:Version,
  {82bce311-6f07-4ca3-a524-1e69edfa4353}, ! Handle
  0.9.3;                                  ! Version Identifier

OS:SizingPeriod:DesignDay,
  {fac2763a-a5ce-4ef7-aef3-0138a1821b13}, ! Handle
  Miles City Municipal Arpt Ann Clg 2% Condns Enth=>MDB, ! Name
  29.5,                                   ! Maximum Dry-Bulb Temperature {C}
  14.9,                                   ! Daily Dry-Bulb Temperature Range {deltaC}
  57300,                                  ! Humidity Indicating Conditions at Maximum Dry-Bulb {BasedOnField A3}
  92065,                                  ! Barometric Pressure {Pa}
  4.7,                                    ! Wind Speed {m/s}
  140,                                    ! Wind Direction {deg}
  0,                                      ! Sky Clearness
  0,                                      ! Rain Indicator
  0,                                      ! Snow Indicator
  21,                                     ! Day of Month
  7,                                      ! Month
  SummerDesignDay,                        ! Day Type
  0,                                      ! Daylight Saving Time Indicator
  Enthalpy,                               ! Humidity Indicating Type
  ,                                       ! Humidity Indicating Day Schedule Name
  DefaultMultipliers,                     ! Dry-Bulb Temperature Range Modifier Type
  ,                                       ! Dry-Bulb Temperature Range Modifier Schedule Name
  ASHRAETau,                              ! Solar Model Indicator
  ,                                       ! Beam Solar Day Schedule Name
  ,                                       ! Diffuse Solar Day Schedule Name
  0.418,                                  ! ASHRAE Taub {dimensionless}
  2.061;                                  ! ASHRAE Taud {dimensionless}

OS:ComponentData,
  {e3d3dbc1-29a8-422c-8bf5-bae578a1a7b6}, ! Handle
  Component Data 1,                       ! Name
  {d5c6c856-97e1-401c-bf0a-c777b1d92404}, ! UUID
  {a605fbe5-87d0-44e8-bdc2-6657cb7b0477}, ! Version UUID
  1366308838,                             ! Creation Timestamp
  1366308838,                             ! Version Timestamp
  {fac2763a-a5ce-4ef7-aef3-0138a1821b13}; ! Name of Object 1

