
OS:Version,
  {15e427b1-75c8-42a2-85a2-cf82d79f4ea1}, ! Handle
  0.9.3;                                  ! Version Identifier

OS:SizingPeriod:DesignDay,
  {ab68c13c-feea-4c6e-a3da-02b10b5f7913}, ! Handle
  Reno Tahoe International Ap Ann Clg .4% Condns DP=>MDB, ! Name
  21.3,                                   ! Maximum Dry-Bulb Temperature {C}
  18.8,                                   ! Daily Dry-Bulb Temperature Range {deltaC}
  13.1,                                   ! Humidity Indicating Conditions at Maximum Dry-Bulb {BasedOnField A3}
  86208,                                  ! Barometric Pressure {Pa}
  4.5,                                    ! Wind Speed {m/s}
  270,                                    ! Wind Direction {deg}
  0,                                      ! Sky Clearness
  0,                                      ! Rain Indicator
  0,                                      ! Snow Indicator
  21,                                     ! Day of Month
  7,                                      ! Month
  SummerDesignDay,                        ! Day Type
  0,                                      ! Daylight Saving Time Indicator
  Dewpoint,                               ! Humidity Indicating Type
  ,                                       ! Humidity Indicating Day Schedule Name
  DefaultMultipliers,                     ! Dry-Bulb Temperature Range Modifier Type
  ,                                       ! Dry-Bulb Temperature Range Modifier Schedule Name
  ASHRAETau,                              ! Solar Model Indicator
  ,                                       ! Beam Solar Day Schedule Name
  ,                                       ! Diffuse Solar Day Schedule Name
  0.398,                                  ! ASHRAE Taub {dimensionless}
  2.123;                                  ! ASHRAE Taud {dimensionless}

OS:ComponentData,
  {b792f724-6aa6-4c46-8ebe-a967806dbb05}, ! Handle
  Component Data 1,                       ! Name
  {5c84af7c-483d-469c-8d18-d6f9832c5918}, ! UUID
  {8d00e0b6-6ab9-4704-a530-4ba4c95ead94}, ! Version UUID
  1366309537,                             ! Creation Timestamp
  1366309537,                             ! Version Timestamp
  {ab68c13c-feea-4c6e-a3da-02b10b5f7913}; ! Name of Object 1

