
OS:Version,
  {4f7413f2-3692-4454-b20a-6ea289fcacbb}, ! Handle
  0.9.3;                                  ! Version Identifier

OS:SizingPeriod:DesignDay,
  {d62bb8d8-4be3-462e-89e8-386a43344f86}, ! Handle
  Molokai  Amos Ann Clg 2% Condns DB=>MWB, ! Name
  29.6,                                   ! Maximum Dry-Bulb Temperature {C}
  7,                                      ! Daily Dry-Bulb Temperature Range {deltaC}
  22.2,                                   ! Humidity Indicating Conditions at Maximum Dry-Bulb {BasedOnField A3}
  99690,                                  ! Barometric Pressure {Pa}
  6.1,                                    ! Wind Speed {m/s}
  60,                                     ! Wind Direction {deg}
  0,                                      ! Sky Clearness
  0,                                      ! Rain Indicator
  0,                                      ! Snow Indicator
  21,                                     ! Day of Month
  8,                                      ! Month
  SummerDesignDay,                        ! Day Type
  0,                                      ! Daylight Saving Time Indicator
  Wetbulb,                                ! Humidity Indicating Type
  ,                                       ! Humidity Indicating Day Schedule Name
  DefaultMultipliers,                     ! Dry-Bulb Temperature Range Modifier Type
  ,                                       ! Dry-Bulb Temperature Range Modifier Schedule Name
  ASHRAETau,                              ! Solar Model Indicator
  ,                                       ! Beam Solar Day Schedule Name
  ,                                       ! Diffuse Solar Day Schedule Name
  0.373,                                  ! ASHRAE Taub {dimensionless}
  2.559;                                  ! ASHRAE Taud {dimensionless}

OS:ComponentData,
  {962f25ff-0728-4de9-85e3-1b15e9cfa520}, ! Handle
  Component Data 1,                       ! Name
  {d2acca6c-0861-4e6d-b7f2-6cf3784c2bab}, ! UUID
  {47e63e88-cb73-4160-9eec-0fe12be22e5a}, ! Version UUID
  1366307128,                             ! Creation Timestamp
  1366307128,                             ! Version Timestamp
  {d62bb8d8-4be3-462e-89e8-386a43344f86}; ! Name of Object 1

