
OS:Version,
  {ffa32172-b335-4129-9111-8861876ba27e}, ! Handle
  0.9.3;                                  ! Version Identifier

OS:SizingPeriod:DesignDay,
  {ffbf9d5e-bd3b-4d65-a96b-b2279ab0827a}, ! Handle
  Moline/Davenport IA Ann Clg 2% Condns DB=>MWB, ! Name
  31,                                     ! Maximum Dry-Bulb Temperature {C}
  11.1,                                   ! Daily Dry-Bulb Temperature Range {deltaC}
  23,                                     ! Humidity Indicating Conditions at Maximum Dry-Bulb {BasedOnField A3}
  99169,                                  ! Barometric Pressure {Pa}
  4.9,                                    ! Wind Speed {m/s}
  210,                                    ! Wind Direction {deg}
  0,                                      ! Sky Clearness
  0,                                      ! Rain Indicator
  0,                                      ! Snow Indicator
  21,                                     ! Day of Month
  7,                                      ! Month
  SummerDesignDay,                        ! Day Type
  0,                                      ! Daylight Saving Time Indicator
  Wetbulb,                                ! Humidity Indicating Type
  ,                                       ! Humidity Indicating Day Schedule Name
  DefaultMultipliers,                     ! Dry-Bulb Temperature Range Modifier Type
  ,                                       ! Dry-Bulb Temperature Range Modifier Schedule Name
  ASHRAETau,                              ! Solar Model Indicator
  ,                                       ! Beam Solar Day Schedule Name
  ,                                       ! Diffuse Solar Day Schedule Name
  0.449,                                  ! ASHRAE Taub {dimensionless}
  2.068;                                  ! ASHRAE Taud {dimensionless}

OS:ComponentData,
  {ac603328-492e-4172-a21c-096231f96af4}, ! Handle
  Component Data 1,                       ! Name
  {21b31e56-9d6c-4815-85e7-180b82d3d838}, ! UUID
  {92fe7b04-49bd-4484-96b6-612060039437}, ! Version UUID
  1366307364,                             ! Creation Timestamp
  1366307364,                             ! Version Timestamp
  {ffbf9d5e-bd3b-4d65-a96b-b2279ab0827a}; ! Name of Object 1

