
OS:Version,
  {d45a8607-be2c-4a1a-bbd4-3132851c181e}, ! Handle
  0.9.3;                                  ! Version Identifier

OS:SizingPeriod:DesignDay,
  {20a461a3-7715-47e0-996a-a735f17e7435}, ! Handle
  Rome R B Russell Ap Ann Clg 1% Condns DP=>MDB, ! Name
  27.9,                                   ! Maximum Dry-Bulb Temperature {C}
  11.6,                                   ! Daily Dry-Bulb Temperature Range {deltaC}
  23.1,                                   ! Humidity Indicating Conditions at Maximum Dry-Bulb {BasedOnField A3}
  99004,                                  ! Barometric Pressure {Pa}
  2.4,                                    ! Wind Speed {m/s}
  280,                                    ! Wind Direction {deg}
  0,                                      ! Sky Clearness
  0,                                      ! Rain Indicator
  0,                                      ! Snow Indicator
  21,                                     ! Day of Month
  7,                                      ! Month
  SummerDesignDay,                        ! Day Type
  0,                                      ! Daylight Saving Time Indicator
  Dewpoint,                               ! Humidity Indicating Type
  ,                                       ! Humidity Indicating Day Schedule Name
  DefaultMultipliers,                     ! Dry-Bulb Temperature Range Modifier Type
  ,                                       ! Dry-Bulb Temperature Range Modifier Schedule Name
  ASHRAETau,                              ! Solar Model Indicator
  ,                                       ! Beam Solar Day Schedule Name
  ,                                       ! Diffuse Solar Day Schedule Name
  0.577,                                  ! ASHRAE Taub {dimensionless}
  1.731;                                  ! ASHRAE Taud {dimensionless}

OS:ComponentData,
  {3dd15e84-2599-4614-a9c3-9cbd736458f7}, ! Handle
  Component Data 1,                       ! Name
  {6dcd071a-c8dc-49f9-bf64-cacab2495a28}, ! UUID
  {e4762ea0-8ee0-4f32-9c53-ba80d0bea05f}, ! Version UUID
  1366307036,                             ! Creation Timestamp
  1366307036,                             ! Version Timestamp
  {20a461a3-7715-47e0-996a-a735f17e7435}; ! Name of Object 1

