
OS:Version,
  {383607f9-9a48-433b-ad49-f9b824930533}, ! Handle
  0.9.3;                                  ! Version Identifier

OS:SizingPeriod:DesignDay,
  {a02ddae7-5927-4602-ac24-747935db9061}, ! Handle
  Oscoda Wurtsmith Afb Ann Clg 2% Condns DP=>MDB, ! Name
  25.3,                                   ! Maximum Dry-Bulb Temperature {C}
  11.8,                                   ! Daily Dry-Bulb Temperature Range {deltaC}
  20.6,                                   ! Humidity Indicating Conditions at Maximum Dry-Bulb {BasedOnField A3}
  99087,                                  ! Barometric Pressure {Pa}
  5.4,                                    ! Wind Speed {m/s}
  200,                                    ! Wind Direction {deg}
  0,                                      ! Sky Clearness
  0,                                      ! Rain Indicator
  0,                                      ! Snow Indicator
  21,                                     ! Day of Month
  7,                                      ! Month
  SummerDesignDay,                        ! Day Type
  0,                                      ! Daylight Saving Time Indicator
  Dewpoint,                               ! Humidity Indicating Type
  ,                                       ! Humidity Indicating Day Schedule Name
  DefaultMultipliers,                     ! Dry-Bulb Temperature Range Modifier Type
  ,                                       ! Dry-Bulb Temperature Range Modifier Schedule Name
  ASHRAETau,                              ! Solar Model Indicator
  ,                                       ! Beam Solar Day Schedule Name
  ,                                       ! Diffuse Solar Day Schedule Name
  0.426,                                  ! ASHRAE Taub {dimensionless}
  2.154;                                  ! ASHRAE Taud {dimensionless}

OS:ComponentData,
  {2bf1aceb-003e-4dc3-a347-a89dfb981ef4}, ! Handle
  Component Data 1,                       ! Name
  {98f880e2-2db0-45ba-8ce0-407e3dadb63c}, ! UUID
  {c3df6e59-2018-4425-8907-fdabd9b9bc36}, ! Version UUID
  1366308084,                             ! Creation Timestamp
  1366308084,                             ! Version Timestamp
  {a02ddae7-5927-4602-ac24-747935db9061}; ! Name of Object 1

