
OS:Version,
  {aba18ba1-7994-435e-a9d7-983170724c2d}, ! Handle
  0.9.3;                                  ! Version Identifier

OS:SizingPeriod:DesignDay,
  {d20741ee-6af2-4b02-920f-20608dd89fee}, ! Handle
  SIOUX_FALLS Ann Clg 2% Condns DP=>MDB,  ! Name
  26.6,                                   ! Maximum Dry-Bulb Temperature {C}
  11.5,                                   ! Daily Dry-Bulb Temperature Range {deltaC}
  21.4,                                   ! Humidity Indicating Conditions at Maximum Dry-Bulb {BasedOnField A3}
  96207,                                  ! Barometric Pressure {Pa}
  6.5,                                    ! Wind Speed {m/s}
  180,                                    ! Wind Direction {deg}
  0,                                      ! Sky Clearness
  0,                                      ! Rain Indicator
  0,                                      ! Snow Indicator
  21,                                     ! Day of Month
  7,                                      ! Month
  SummerDesignDay,                        ! Day Type
  0,                                      ! Daylight Saving Time Indicator
  Dewpoint,                               ! Humidity Indicating Type
  ,                                       ! Humidity Indicating Day Schedule Name
  DefaultMultipliers,                     ! Dry-Bulb Temperature Range Modifier Type
  ,                                       ! Dry-Bulb Temperature Range Modifier Schedule Name
  ASHRAETau,                              ! Solar Model Indicator
  ,                                       ! Beam Solar Day Schedule Name
  ,                                       ! Diffuse Solar Day Schedule Name
  0.392,                                  ! ASHRAE Taub {dimensionless}
  2.283;                                  ! ASHRAE Taud {dimensionless}

OS:ComponentData,
  {e95598a1-a21d-41be-b798-239fe36d165b}, ! Handle
  Component Data 1,                       ! Name
  {d3d7fc83-8d5f-4b85-90a3-0ac19c7a8452}, ! UUID
  {47aedd4b-6de3-4cd9-92b8-9ba51e9ab3da}, ! Version UUID
  1366310464,                             ! Creation Timestamp
  1366310464,                             ! Version Timestamp
  {d20741ee-6af2-4b02-920f-20608dd89fee}; ! Name of Object 1

