
OS:Version,
  {c82708b6-1cb5-4776-bb55-d6101dabb850}, ! Handle
  0.9.3;                                  ! Version Identifier

OS:SizingPeriod:DesignDay,
  {20c97147-8bd9-4365-ac14-4fa6395c4b81}, ! Handle
  Mount Shasta Ann Hum_n 99.6% Condns DP=>MCDB, ! Name
  0.7,                                    ! Maximum Dry-Bulb Temperature {C}
  0,                                      ! Daily Dry-Bulb Temperature Range {deltaC}
  -17.5,                                  ! Humidity Indicating Conditions at Maximum Dry-Bulb {BasedOnField A3}
  89038,                                  ! Barometric Pressure {Pa}
  1.3,                                    ! Wind Speed {m/s}
  50,                                     ! Wind Direction {deg}
  0,                                      ! Sky Clearness
  0,                                      ! Rain Indicator
  0,                                      ! Snow Indicator
  21,                                     ! Day of Month
  12,                                     ! Month
  WinterDesignDay,                        ! Day Type
  0,                                      ! Daylight Saving Time Indicator
  Dewpoint,                               ! Humidity Indicating Type
  ,                                       ! Humidity Indicating Day Schedule Name
  DefaultMultipliers,                     ! Dry-Bulb Temperature Range Modifier Type
  ,                                       ! Dry-Bulb Temperature Range Modifier Schedule Name
  ASHRAEClearSky;                         ! Solar Model Indicator

OS:ComponentData,
  {9ae1b458-5e85-476a-8d76-5fd5e518d616}, ! Handle
  Component Data 1,                       ! Name
  {517deec5-f7e9-4304-bbfe-14a338ec2e06}, ! UUID
  {2969e1d7-0ed8-4044-9b8a-69b33593f155}, ! Version UUID
  1366306502,                             ! Creation Timestamp
  1366306502,                             ! Version Timestamp
  {20c97147-8bd9-4365-ac14-4fa6395c4b81}; ! Name of Object 1

