
OS:Version,
  {4c72c193-300d-45cc-9092-e6a0f4c63785}, ! Handle
  0.9.3;                                  ! Version Identifier

OS:SizingPeriod:DesignDay,
  {931934d1-b98f-4c69-b093-e6c4552cdf95}, ! Handle
  Saint Mary S  Awos Ann Clg 1% Condns DB=>MWB, ! Name
  19,                                     ! Maximum Dry-Bulb Temperature {C}
  7.2,                                    ! Daily Dry-Bulb Temperature Range {deltaC}
  13.2,                                   ! Humidity Indicating Conditions at Maximum Dry-Bulb {BasedOnField A3}
  100189,                                 ! Barometric Pressure {Pa}
  4.7,                                    ! Wind Speed {m/s}
  0,                                      ! Wind Direction {deg}
  0,                                      ! Sky Clearness
  0,                                      ! Rain Indicator
  0,                                      ! Snow Indicator
  21,                                     ! Day of Month
  7,                                      ! Month
  SummerDesignDay,                        ! Day Type
  0,                                      ! Daylight Saving Time Indicator
  Wetbulb,                                ! Humidity Indicating Type
  ,                                       ! Humidity Indicating Day Schedule Name
  DefaultMultipliers,                     ! Dry-Bulb Temperature Range Modifier Type
  ,                                       ! Dry-Bulb Temperature Range Modifier Schedule Name
  ASHRAETau,                              ! Solar Model Indicator
  ,                                       ! Beam Solar Day Schedule Name
  ,                                       ! Diffuse Solar Day Schedule Name
  0.376,                                  ! ASHRAE Taub {dimensionless}
  2.221;                                  ! ASHRAE Taud {dimensionless}

OS:ComponentData,
  {af0811ec-4a8c-4f34-abaf-17ca83749201}, ! Handle
  Component Data 1,                       ! Name
  {c72fd051-3f72-466f-b965-6f85f97ed69c}, ! UUID
  {441370f9-7cd6-4ee1-9a17-cf36b682b1ea}, ! Version UUID
  1366305513,                             ! Creation Timestamp
  1366305513,                             ! Version Timestamp
  {931934d1-b98f-4c69-b093-e6c4552cdf95}; ! Name of Object 1

