
OS:Version,
  {80a33859-837b-4991-8109-a57573822527}, ! Handle
  0.9.3;                                  ! Version Identifier

OS:SizingPeriod:DesignDay,
  {6edfc1fe-b459-400a-a524-9e0b6fce74e8}, ! Handle
  Spencer Ann Clg .4% Condns Enth=>MDB,   ! Name
  31,                                     ! Maximum Dry-Bulb Temperature {C}
  11.3,                                   ! Daily Dry-Bulb Temperature Range {deltaC}
  80000,                                  ! Humidity Indicating Conditions at Maximum Dry-Bulb {BasedOnField A3}
  96519,                                  ! Barometric Pressure {Pa}
  6.1,                                    ! Wind Speed {m/s}
  180,                                    ! Wind Direction {deg}
  0,                                      ! Sky Clearness
  0,                                      ! Rain Indicator
  0,                                      ! Snow Indicator
  21,                                     ! Day of Month
  7,                                      ! Month
  SummerDesignDay,                        ! Day Type
  0,                                      ! Daylight Saving Time Indicator
  Enthalpy,                               ! Humidity Indicating Type
  ,                                       ! Humidity Indicating Day Schedule Name
  DefaultMultipliers,                     ! Dry-Bulb Temperature Range Modifier Type
  ,                                       ! Dry-Bulb Temperature Range Modifier Schedule Name
  ASHRAETau,                              ! Solar Model Indicator
  ,                                       ! Beam Solar Day Schedule Name
  ,                                       ! Diffuse Solar Day Schedule Name
  0.401,                                  ! ASHRAE Taub {dimensionless}
  2.247;                                  ! ASHRAE Taud {dimensionless}

OS:ComponentData,
  {4eac7641-433b-4d43-b86f-e2c2d93a30ea}, ! Handle
  Component Data 1,                       ! Name
  {1ba4cba7-bd1e-4731-be5e-15499ec9aa9a}, ! UUID
  {09d9d851-6580-4901-a07d-b1a904f0ee32}, ! Version UUID
  1366307243,                             ! Creation Timestamp
  1366307243,                             ! Version Timestamp
  {6edfc1fe-b459-400a-a524-9e0b6fce74e8}; ! Name of Object 1

