
OS:Version,
  {69c2d2ec-7908-4e0d-bed1-9e0a0cb12a22}, ! Handle
  0.9.3;                                  ! Version Identifier

OS:SizingPeriod:DesignDay,
  {eee24c98-090f-408f-a92d-faa1576d7dd7}, ! Handle
  Monroe Co Ann Clg 1% Condns DP=>MDB,    ! Name
  28,                                     ! Maximum Dry-Bulb Temperature {C}
  10.8,                                   ! Daily Dry-Bulb Temperature Range {deltaC}
  23.8,                                   ! Humidity Indicating Conditions at Maximum Dry-Bulb {BasedOnField A3}
  98193,                                  ! Barometric Pressure {Pa}
  3.4,                                    ! Wind Speed {m/s}
  240,                                    ! Wind Direction {deg}
  0,                                      ! Sky Clearness
  0,                                      ! Rain Indicator
  0,                                      ! Snow Indicator
  21,                                     ! Day of Month
  7,                                      ! Month
  SummerDesignDay,                        ! Day Type
  0,                                      ! Daylight Saving Time Indicator
  Dewpoint,                               ! Humidity Indicating Type
  ,                                       ! Humidity Indicating Day Schedule Name
  DefaultMultipliers,                     ! Dry-Bulb Temperature Range Modifier Type
  ,                                       ! Dry-Bulb Temperature Range Modifier Schedule Name
  ASHRAETau,                              ! Solar Model Indicator
  ,                                       ! Beam Solar Day Schedule Name
  ,                                       ! Diffuse Solar Day Schedule Name
  0.485,                                  ! ASHRAE Taub {dimensionless}
  1.938;                                  ! ASHRAE Taud {dimensionless}

OS:ComponentData,
  {f09ed7cf-cd2a-477a-9dc3-6f6741a686e4}, ! Handle
  Component Data 1,                       ! Name
  {674cdaa0-2bd3-434a-9890-aa6b20a9f0b0}, ! UUID
  {6ae214a2-b5d8-40cd-b25e-c670480ab9d8}, ! Version UUID
  1366307476,                             ! Creation Timestamp
  1366307476,                             ! Version Timestamp
  {eee24c98-090f-408f-a92d-faa1576d7dd7}; ! Name of Object 1

