
OS:Version,
  {aa8a24dd-3ad8-40c2-b9d5-74d7f1d896a8}, ! Handle
  0.9.3;                                  ! Version Identifier

OS:SizingPeriod:DesignDay,
  {d6886b00-7477-41d8-b0f1-581dfc5338e5}, ! Handle
  Napa Co  Airport Ann Clg 2% Condns WB=>MDB, ! Name
  26.6,                                   ! Maximum Dry-Bulb Temperature {C}
  13,                                     ! Daily Dry-Bulb Temperature Range {deltaC}
  18.6,                                   ! Humidity Indicating Conditions at Maximum Dry-Bulb {BasedOnField A3}
  101205,                                 ! Barometric Pressure {Pa}
  4.5,                                    ! Wind Speed {m/s}
  210,                                    ! Wind Direction {deg}
  0,                                      ! Sky Clearness
  0,                                      ! Rain Indicator
  0,                                      ! Snow Indicator
  21,                                     ! Day of Month
  7,                                      ! Month
  SummerDesignDay,                        ! Day Type
  0,                                      ! Daylight Saving Time Indicator
  Wetbulb,                                ! Humidity Indicating Type
  ,                                       ! Humidity Indicating Day Schedule Name
  DefaultMultipliers,                     ! Dry-Bulb Temperature Range Modifier Type
  ,                                       ! Dry-Bulb Temperature Range Modifier Schedule Name
  ASHRAETau,                              ! Solar Model Indicator
  ,                                       ! Beam Solar Day Schedule Name
  ,                                       ! Diffuse Solar Day Schedule Name
  0.367,                                  ! ASHRAE Taub {dimensionless}
  2.436;                                  ! ASHRAE Taud {dimensionless}

OS:ComponentData,
  {04e864c7-4214-4d8b-b98a-6f96a631d6d9}, ! Handle
  Component Data 1,                       ! Name
  {9319752a-1278-4257-901d-ec57f96cf053}, ! UUID
  {d59c59e9-1990-4b8b-af22-b70914be678f}, ! Version UUID
  1366306517,                             ! Creation Timestamp
  1366306517,                             ! Version Timestamp
  {d6886b00-7477-41d8-b0f1-581dfc5338e5}; ! Name of Object 1

