
OS:Version,
  {3f733378-29f3-46d9-8c01-610bd5043abc}, ! Handle
  0.9.3;                                  ! Version Identifier

OS:SizingPeriod:DesignDay,
  {4161ae82-be12-4639-8e7c-ea3a78e5ab00}, ! Handle
  Mercury Desert Rock Ap  Surfr Ann Clg 1% Condns DB=>MWB, ! Name
  38.6,                                   ! Maximum Dry-Bulb Temperature {C}
  14.8,                                   ! Daily Dry-Bulb Temperature Range {deltaC}
  18.3,                                   ! Humidity Indicating Conditions at Maximum Dry-Bulb {BasedOnField A3}
  90585,                                  ! Barometric Pressure {Pa}
  5.5,                                    ! Wind Speed {m/s}
  230,                                    ! Wind Direction {deg}
  0,                                      ! Sky Clearness
  0,                                      ! Rain Indicator
  0,                                      ! Snow Indicator
  21,                                     ! Day of Month
  7,                                      ! Month
  SummerDesignDay,                        ! Day Type
  0,                                      ! Daylight Saving Time Indicator
  Wetbulb,                                ! Humidity Indicating Type
  ,                                       ! Humidity Indicating Day Schedule Name
  DefaultMultipliers,                     ! Dry-Bulb Temperature Range Modifier Type
  ,                                       ! Dry-Bulb Temperature Range Modifier Schedule Name
  ASHRAETau,                              ! Solar Model Indicator
  ,                                       ! Beam Solar Day Schedule Name
  ,                                       ! Diffuse Solar Day Schedule Name
  0.507,                                  ! ASHRAE Taub {dimensionless}
  1.746;                                  ! ASHRAE Taud {dimensionless}

OS:ComponentData,
  {3d35a88e-f6e1-4f48-8664-7fe199b9c0e1}, ! Handle
  Component Data 1,                       ! Name
  {225d6ab3-adb2-48b2-8be1-8a8c7d6e70a3}, ! UUID
  {84cc39c9-2c22-47ec-9495-f529f5d26543}, ! Version UUID
  1366309521,                             ! Creation Timestamp
  1366309521,                             ! Version Timestamp
  {4161ae82-be12-4639-8e7c-ea3a78e5ab00}; ! Name of Object 1

