
OS:Version,
  {9d7f02d2-18b5-4c76-b407-60433971c5da}, ! Handle
  0.9.3;                                  ! Version Identifier

OS:SizingPeriod:DesignDay,
  {b7fabbdd-c220-42a9-9b00-2335f3864190}, ! Handle
  Pullman Moscow Rgnl Ann Clg .4% Condns Enth=>MDB, ! Name
  30.1,                                   ! Maximum Dry-Bulb Temperature {C}
  16.9,                                   ! Daily Dry-Bulb Temperature Range {deltaC}
  62000,                                  ! Humidity Indicating Conditions at Maximum Dry-Bulb {BasedOnField A3}
  92321,                                  ! Barometric Pressure {Pa}
  2.2,                                    ! Wind Speed {m/s}
  260,                                    ! Wind Direction {deg}
  0,                                      ! Sky Clearness
  0,                                      ! Rain Indicator
  0,                                      ! Snow Indicator
  21,                                     ! Day of Month
  7,                                      ! Month
  SummerDesignDay,                        ! Day Type
  0,                                      ! Daylight Saving Time Indicator
  Enthalpy,                               ! Humidity Indicating Type
  ,                                       ! Humidity Indicating Day Schedule Name
  DefaultMultipliers,                     ! Dry-Bulb Temperature Range Modifier Type
  ,                                       ! Dry-Bulb Temperature Range Modifier Schedule Name
  ASHRAETau,                              ! Solar Model Indicator
  ,                                       ! Beam Solar Day Schedule Name
  ,                                       ! Diffuse Solar Day Schedule Name
  0.365,                                  ! ASHRAE Taub {dimensionless}
  2.328;                                  ! ASHRAE Taud {dimensionless}

OS:ComponentData,
  {1dc3eac7-29e6-472a-a72c-38200450b199}, ! Handle
  Component Data 1,                       ! Name
  {4ef4c4d2-e7af-450c-ac04-9e57f3a2325e}, ! UUID
  {ec31eb90-3487-42a6-b96d-00b5c0c7b586}, ! Version UUID
  1366311332,                             ! Creation Timestamp
  1366311332,                             ! Version Timestamp
  {b7fabbdd-c220-42a9-9b00-2335f3864190}; ! Name of Object 1

