
OS:Version,
  {dc77acdd-826b-4c48-b22d-65780c09f594}, ! Handle
  0.9.3;                                  ! Version Identifier

OS:SizingPeriod:DesignDay,
  {ff32e2d5-908f-4825-9a58-55ddf194d151}, ! Handle
  Worthington  Awos Ann Clg 1% Condns WB=>MDB, ! Name
  27.7,                                   ! Maximum Dry-Bulb Temperature {C}
  9.9,                                    ! Daily Dry-Bulb Temperature Range {deltaC}
  23.5,                                   ! Humidity Indicating Conditions at Maximum Dry-Bulb {BasedOnField A3}
  95690,                                  ! Barometric Pressure {Pa}
  6.7,                                    ! Wind Speed {m/s}
  190,                                    ! Wind Direction {deg}
  0,                                      ! Sky Clearness
  0,                                      ! Rain Indicator
  0,                                      ! Snow Indicator
  21,                                     ! Day of Month
  7,                                      ! Month
  SummerDesignDay,                        ! Day Type
  0,                                      ! Daylight Saving Time Indicator
  Wetbulb,                                ! Humidity Indicating Type
  ,                                       ! Humidity Indicating Day Schedule Name
  DefaultMultipliers,                     ! Dry-Bulb Temperature Range Modifier Type
  ,                                       ! Dry-Bulb Temperature Range Modifier Schedule Name
  ASHRAETau,                              ! Solar Model Indicator
  ,                                       ! Beam Solar Day Schedule Name
  ,                                       ! Diffuse Solar Day Schedule Name
  0.393,                                  ! ASHRAE Taub {dimensionless}
  2.274;                                  ! ASHRAE Taud {dimensionless}

OS:ComponentData,
  {20229ec1-f91a-4c83-b036-3807a714d65e}, ! Handle
  Component Data 1,                       ! Name
  {8d24afd4-fccf-4275-b470-caac99dd2a77}, ! UUID
  {97b9fc23-a95d-4181-8165-61b8e779b040}, ! Version UUID
  1366308469,                             ! Creation Timestamp
  1366308469,                             ! Version Timestamp
  {ff32e2d5-908f-4825-9a58-55ddf194d151}; ! Name of Object 1

