
OS:Version,
  {eb56becb-c0de-4af7-8bf8-96977229339f}, ! Handle
  0.9.3;                                  ! Version Identifier

OS:SizingPeriod:DesignDay,
  {d5726208-ed3d-4baa-ab51-6cbd882b822e}, ! Handle
  TOLEDO Ann Clg .4% Condns DP=>MDB,      ! Name
  28.3,                                   ! Maximum Dry-Bulb Temperature {C}
  11.5,                                   ! Daily Dry-Bulb Temperature Range {deltaC}
  23.4,                                   ! Humidity Indicating Conditions at Maximum Dry-Bulb {BasedOnField A3}
  98816,                                  ! Barometric Pressure {Pa}
  4.8,                                    ! Wind Speed {m/s}
  230,                                    ! Wind Direction {deg}
  0,                                      ! Sky Clearness
  0,                                      ! Rain Indicator
  0,                                      ! Snow Indicator
  21,                                     ! Day of Month
  7,                                      ! Month
  SummerDesignDay,                        ! Day Type
  0,                                      ! Daylight Saving Time Indicator
  Dewpoint,                               ! Humidity Indicating Type
  ,                                       ! Humidity Indicating Day Schedule Name
  DefaultMultipliers,                     ! Dry-Bulb Temperature Range Modifier Type
  ,                                       ! Dry-Bulb Temperature Range Modifier Schedule Name
  ASHRAETau,                              ! Solar Model Indicator
  ,                                       ! Beam Solar Day Schedule Name
  ,                                       ! Diffuse Solar Day Schedule Name
  0.45,                                   ! ASHRAE Taub {dimensionless}
  2.065;                                  ! ASHRAE Taud {dimensionless}

OS:ComponentData,
  {1cff5a48-fd43-402f-ac62-63181c663e43}, ! Handle
  Component Data 1,                       ! Name
  {2f9ae9df-8655-4882-a4f6-f78679b0b993}, ! UUID
  {88a420f9-2613-4aef-b019-ccbb2fe3aa57}, ! Version UUID
  1366309846,                             ! Creation Timestamp
  1366309846,                             ! Version Timestamp
  {d5726208-ed3d-4baa-ab51-6cbd882b822e}; ! Name of Object 1

