
OS:Version,
  {c6d5d61e-971d-4351-a49e-17031600c82d}, ! Handle
  0.9.3;                                  ! Version Identifier

OS:SizingPeriod:DesignDay,
  {a1452aa4-8486-43ad-a5f5-f0aa742b9ac4}, ! Handle
  Teterboro Airport Ann Htg 99% Condns DB, ! Name
  -9.7,                                   ! Maximum Dry-Bulb Temperature {C}
  0,                                      ! Daily Dry-Bulb Temperature Range {deltaC}
  -9.7,                                   ! Humidity Indicating Conditions at Maximum Dry-Bulb {BasedOnField A3}
  101289,                                 ! Barometric Pressure {Pa}
  4.6,                                    ! Wind Speed {m/s}
  340,                                    ! Wind Direction {deg}
  0,                                      ! Sky Clearness
  0,                                      ! Rain Indicator
  0,                                      ! Snow Indicator
  21,                                     ! Day of Month
  1,                                      ! Month
  WinterDesignDay,                        ! Day Type
  0,                                      ! Daylight Saving Time Indicator
  Wetbulb,                                ! Humidity Indicating Type
  ,                                       ! Humidity Indicating Day Schedule Name
  DefaultMultipliers,                     ! Dry-Bulb Temperature Range Modifier Type
  ,                                       ! Dry-Bulb Temperature Range Modifier Schedule Name
  ASHRAEClearSky;                         ! Solar Model Indicator

OS:ComponentData,
  {3dbba450-c63e-4f85-93e1-28b9e0e5150d}, ! Handle
  Component Data 1,                       ! Name
  {ec31ca33-c281-4c6b-b726-297534f68096}, ! UUID
  {27421f32-c17e-4d01-9e20-ac6338121a95}, ! Version UUID
  1366309343,                             ! Creation Timestamp
  1366309343,                             ! Version Timestamp
  {a1452aa4-8486-43ad-a5f5-f0aa742b9ac4}; ! Name of Object 1

