
OS:Version,
  {53bfce00-443a-4595-aac6-7ec6e7a2bf87}, ! Handle
  0.9.3;                                  ! Version Identifier

OS:SizingPeriod:DesignDay,
  {55458366-595e-480f-8bc5-d9b0f0756b4d}, ! Handle
  YOUNGSTOWN Ann Clg .4% Condns DB=>MWB,  ! Name
  31.4,                                   ! Maximum Dry-Bulb Temperature {C}
  11.5,                                   ! Daily Dry-Bulb Temperature Range {deltaC}
  22.6,                                   ! Humidity Indicating Conditions at Maximum Dry-Bulb {BasedOnField A3}
  97063,                                  ! Barometric Pressure {Pa}
  4.3,                                    ! Wind Speed {m/s}
  230,                                    ! Wind Direction {deg}
  0,                                      ! Sky Clearness
  0,                                      ! Rain Indicator
  0,                                      ! Snow Indicator
  21,                                     ! Day of Month
  7,                                      ! Month
  SummerDesignDay,                        ! Day Type
  0,                                      ! Daylight Saving Time Indicator
  Wetbulb,                                ! Humidity Indicating Type
  ,                                       ! Humidity Indicating Day Schedule Name
  DefaultMultipliers,                     ! Dry-Bulb Temperature Range Modifier Type
  ,                                       ! Dry-Bulb Temperature Range Modifier Schedule Name
  ASHRAETau,                              ! Solar Model Indicator
  ,                                       ! Beam Solar Day Schedule Name
  ,                                       ! Diffuse Solar Day Schedule Name
  0.456,                                  ! ASHRAE Taub {dimensionless}
  2.022;                                  ! ASHRAE Taud {dimensionless}

OS:ComponentData,
  {56963456-64ee-4353-b2f5-8d2fd1d8c613}, ! Handle
  Component Data 1,                       ! Name
  {b29eb9bd-b923-4d81-85a2-0915ba19ca1e}, ! UUID
  {a54fe551-1203-46ca-875d-07b91ef83629}, ! Version UUID
  1366309860,                             ! Creation Timestamp
  1366309860,                             ! Version Timestamp
  {55458366-595e-480f-8bc5-d9b0f0756b4d}; ! Name of Object 1

