
OS:Version,
  {996b444f-11c7-4a1b-9226-ae3ba3dd5dc3}, ! Handle
  0.9.3;                                  ! Version Identifier

OS:SizingPeriod:DesignDay,
  {0de58c0a-284c-43a2-a7e2-b20a2615e5c8}, ! Handle
  Northway Airport Ann Clg .4% Condns WB=>MDB, ! Name
  23.4,                                   ! Maximum Dry-Bulb Temperature {C}
  11.3,                                   ! Daily Dry-Bulb Temperature Range {deltaC}
  15.7,                                   ! Humidity Indicating Conditions at Maximum Dry-Bulb {BasedOnField A3}
  95209,                                  ! Barometric Pressure {Pa}
  2.7,                                    ! Wind Speed {m/s}
  290,                                    ! Wind Direction {deg}
  0,                                      ! Sky Clearness
  0,                                      ! Rain Indicator
  0,                                      ! Snow Indicator
  21,                                     ! Day of Month
  7,                                      ! Month
  SummerDesignDay,                        ! Day Type
  0,                                      ! Daylight Saving Time Indicator
  Wetbulb,                                ! Humidity Indicating Type
  ,                                       ! Humidity Indicating Day Schedule Name
  DefaultMultipliers,                     ! Dry-Bulb Temperature Range Modifier Type
  ,                                       ! Dry-Bulb Temperature Range Modifier Schedule Name
  ASHRAETau,                              ! Solar Model Indicator
  ,                                       ! Beam Solar Day Schedule Name
  ,                                       ! Diffuse Solar Day Schedule Name
  0.398,                                  ! ASHRAE Taub {dimensionless}
  2.064;                                  ! ASHRAE Taud {dimensionless}

OS:ComponentData,
  {bde2d1ed-351e-4fa3-a59d-eadf4cb94815}, ! Handle
  Component Data 1,                       ! Name
  {aa203cee-e586-44ee-841c-d710d1dfc90d}, ! UUID
  {7f5bf87c-12f9-413e-b031-439a327539ea}, ! Version UUID
  1366305471,                             ! Creation Timestamp
  1366305471,                             ! Version Timestamp
  {0de58c0a-284c-43a2-a7e2-b20a2615e5c8}; ! Name of Object 1

