
OS:Version,
  {442a15e0-5958-49bd-9833-209dbd12658f}, ! Handle
  0.9.3;                                  ! Version Identifier

OS:SizingPeriod:DesignDay,
  {feb7be77-1024-4d2a-a908-7b26955637e2}, ! Handle
  Wilkes-Barre/Scranton Ann Clg 1% Condns DP=>MDB, ! Name
  25.3,                                   ! Maximum Dry-Bulb Temperature {C}
  10.8,                                   ! Daily Dry-Bulb Temperature Range {deltaC}
  21.5,                                   ! Humidity Indicating Conditions at Maximum Dry-Bulb {BasedOnField A3}
  97901,                                  ! Barometric Pressure {Pa}
  4.5,                                    ! Wind Speed {m/s}
  240,                                    ! Wind Direction {deg}
  0,                                      ! Sky Clearness
  0,                                      ! Rain Indicator
  0,                                      ! Snow Indicator
  21,                                     ! Day of Month
  7,                                      ! Month
  SummerDesignDay,                        ! Day Type
  0,                                      ! Daylight Saving Time Indicator
  Dewpoint,                               ! Humidity Indicating Type
  ,                                       ! Humidity Indicating Day Schedule Name
  DefaultMultipliers,                     ! Dry-Bulb Temperature Range Modifier Type
  ,                                       ! Dry-Bulb Temperature Range Modifier Schedule Name
  ASHRAETau,                              ! Solar Model Indicator
  ,                                       ! Beam Solar Day Schedule Name
  ,                                       ! Diffuse Solar Day Schedule Name
  0.477,                                  ! ASHRAE Taub {dimensionless}
  1.945;                                  ! ASHRAE Taud {dimensionless}

OS:ComponentData,
  {66cb9c67-6c76-431e-a8bc-bafca5484668}, ! Handle
  Component Data 1,                       ! Name
  {36e7fadc-205f-4f84-9c52-06d2b30a8326}, ! UUID
  {749d4ce6-cba2-494d-aa63-814a36699315}, ! Version UUID
  1366310262,                             ! Creation Timestamp
  1366310262,                             ! Version Timestamp
  {feb7be77-1024-4d2a-a908-7b26955637e2}; ! Name of Object 1

