
OS:Version,
  {0cb2ae91-36f1-420b-8dd8-1f936f095155}, ! Handle
  0.9.3;                                  ! Version Identifier

OS:SizingPeriod:DesignDay,
  {94e5fbc3-0544-4cee-8941-264391703d4a}, ! Handle
  St Paul Downtown Ap Ann Htg 99.6% Condns DB, ! Name
  -24.4,                                  ! Maximum Dry-Bulb Temperature {C}
  0,                                      ! Daily Dry-Bulb Temperature Range {deltaC}
  -24.4,                                  ! Humidity Indicating Conditions at Maximum Dry-Bulb {BasedOnField A3}
  98710,                                  ! Barometric Pressure {Pa}
  3.6,                                    ! Wind Speed {m/s}
  300,                                    ! Wind Direction {deg}
  0,                                      ! Sky Clearness
  0,                                      ! Rain Indicator
  0,                                      ! Snow Indicator
  21,                                     ! Day of Month
  1,                                      ! Month
  WinterDesignDay,                        ! Day Type
  0,                                      ! Daylight Saving Time Indicator
  Wetbulb,                                ! Humidity Indicating Type
  ,                                       ! Humidity Indicating Day Schedule Name
  DefaultMultipliers,                     ! Dry-Bulb Temperature Range Modifier Type
  ,                                       ! Dry-Bulb Temperature Range Modifier Schedule Name
  ASHRAEClearSky;                         ! Solar Model Indicator

OS:ComponentData,
  {9a3cc99a-7575-4b61-a075-5a8b42b2bf21}, ! Handle
  Component Data 1,                       ! Name
  {4153cc54-e076-40ff-9a92-73f5676fcae3}, ! UUID
  {389b89ae-cd3f-4d7c-b2a3-ec53fc00c7a8}, ! Version UUID
  1366308433,                             ! Creation Timestamp
  1366308433,                             ! Version Timestamp
  {94e5fbc3-0544-4cee-8941-264391703d4a}; ! Name of Object 1

