
OS:Version,
  {4343e050-cb42-4293-b882-b4f0d63a8f4c}, ! Handle
  0.9.3;                                  ! Version Identifier

OS:SizingPeriod:DesignDay,
  {2bc306fd-0b0c-48b9-b1cd-7850e12f32f2}, ! Handle
  Shreveport Downtown Ann Clg 1% Condns DB=>MWB, ! Name
  36,                                     ! Maximum Dry-Bulb Temperature {C}
  9.9,                                    ! Daily Dry-Bulb Temperature Range {deltaC}
  24.7,                                   ! Humidity Indicating Conditions at Maximum Dry-Bulb {BasedOnField A3}
  100666,                                 ! Barometric Pressure {Pa}
  3,                                      ! Wind Speed {m/s}
  130,                                    ! Wind Direction {deg}
  0,                                      ! Sky Clearness
  0,                                      ! Rain Indicator
  0,                                      ! Snow Indicator
  21,                                     ! Day of Month
  7,                                      ! Month
  SummerDesignDay,                        ! Day Type
  0,                                      ! Daylight Saving Time Indicator
  Wetbulb,                                ! Humidity Indicating Type
  ,                                       ! Humidity Indicating Day Schedule Name
  DefaultMultipliers,                     ! Dry-Bulb Temperature Range Modifier Type
  ,                                       ! Dry-Bulb Temperature Range Modifier Schedule Name
  ASHRAETau,                              ! Solar Model Indicator
  ,                                       ! Beam Solar Day Schedule Name
  ,                                       ! Diffuse Solar Day Schedule Name
  0.491,                                  ! ASHRAE Taub {dimensionless}
  2.008;                                  ! ASHRAE Taud {dimensionless}

OS:ComponentData,
  {428419ca-dd78-4ee3-b7ff-da706811ef29}, ! Handle
  Component Data 1,                       ! Name
  {0e5fe7ec-ab89-4fe5-a32a-b59eb388b13f}, ! UUID
  {ce3be0c2-6c5b-4368-b4e0-94ae310576be}, ! Version UUID
  1366307766,                             ! Creation Timestamp
  1366307766,                             ! Version Timestamp
  {2bc306fd-0b0c-48b9-b1cd-7850e12f32f2}; ! Name of Object 1

