
OS:Version,
  {bafdf8a3-0f8f-4c3a-88be-8166a6705894}, ! Handle
  0.9.3;                                  ! Version Identifier

OS:SizingPeriod:DesignDay,
  {9d7204e6-80ca-4807-ab8a-38675b11ff83}, ! Handle
  Whiteman Afb Ann Clg 2% Condns DB=>MWB, ! Name
  32.6,                                   ! Maximum Dry-Bulb Temperature {C}
  10.6,                                   ! Daily Dry-Bulb Temperature Range {deltaC}
  24,                                     ! Humidity Indicating Conditions at Maximum Dry-Bulb {BasedOnField A3}
  98299,                                  ! Barometric Pressure {Pa}
  4.4,                                    ! Wind Speed {m/s}
  200,                                    ! Wind Direction {deg}
  0,                                      ! Sky Clearness
  0,                                      ! Rain Indicator
  0,                                      ! Snow Indicator
  21,                                     ! Day of Month
  7,                                      ! Month
  SummerDesignDay,                        ! Day Type
  0,                                      ! Daylight Saving Time Indicator
  Wetbulb,                                ! Humidity Indicating Type
  ,                                       ! Humidity Indicating Day Schedule Name
  DefaultMultipliers,                     ! Dry-Bulb Temperature Range Modifier Type
  ,                                       ! Dry-Bulb Temperature Range Modifier Schedule Name
  ASHRAETau,                              ! Solar Model Indicator
  ,                                       ! Beam Solar Day Schedule Name
  ,                                       ! Diffuse Solar Day Schedule Name
  0.447,                                  ! ASHRAE Taub {dimensionless}
  2.107;                                  ! ASHRAE Taud {dimensionless}

