
OS:Version,
  {22e74796-8567-4bb8-8a79-f22f9f816bcb}, ! Handle
  0.9.3;                                  ! Version Identifier

OS:SizingPeriod:DesignDay,
  {b9dafd7f-8baf-45d8-9f36-ac83fe6a2762}, ! Handle
  NEWARK Ann Clg 1% Condns DB=>MWB,       ! Name
  32.8,                                   ! Maximum Dry-Bulb Temperature {C}
  8.9,                                    ! Daily Dry-Bulb Temperature Range {deltaC}
  23,                                     ! Humidity Indicating Conditions at Maximum Dry-Bulb {BasedOnField A3}
  101217,                                 ! Barometric Pressure {Pa}
  5.8,                                    ! Wind Speed {m/s}
  250,                                    ! Wind Direction {deg}
  0,                                      ! Sky Clearness
  0,                                      ! Rain Indicator
  0,                                      ! Snow Indicator
  21,                                     ! Day of Month
  7,                                      ! Month
  SummerDesignDay,                        ! Day Type
  0,                                      ! Daylight Saving Time Indicator
  Wetbulb,                                ! Humidity Indicating Type
  ,                                       ! Humidity Indicating Day Schedule Name
  DefaultMultipliers,                     ! Dry-Bulb Temperature Range Modifier Type
  ,                                       ! Dry-Bulb Temperature Range Modifier Schedule Name
  ASHRAETau,                              ! Solar Model Indicator
  ,                                       ! Beam Solar Day Schedule Name
  ,                                       ! Diffuse Solar Day Schedule Name
  0.528,                                  ! ASHRAE Taub {dimensionless}
  1.831;                                  ! ASHRAE Taud {dimensionless}

OS:ComponentData,
  {7b88efe0-e74d-4729-b241-35ac005ac71c}, ! Handle
  Component Data 1,                       ! Name
  {4afb1c7e-f3b5-4dc0-9431-c70882bfa1eb}, ! UUID
  {d44c9a31-8eb0-4768-8b8a-057629836d32}, ! Version UUID
  1366309327,                             ! Creation Timestamp
  1366309327,                             ! Version Timestamp
  {b9dafd7f-8baf-45d8-9f36-ac83fe6a2762}; ! Name of Object 1

