
OS:Version,
  {181587b8-cfe2-4b2c-b286-3a7e44ab2bc5}, ! Handle
  0.9.3;                                  ! Version Identifier

OS:SizingPeriod:DesignDay,
  {58596c2d-01de-4a98-b6c9-4e88d5969235}, ! Handle
  Mcallen Miller Intl Ap  Edinb Ann Clg .4% Condns WB=>MDB, ! Name
  32.7,                                   ! Maximum Dry-Bulb Temperature {C}
  11.1,                                   ! Daily Dry-Bulb Temperature Range {deltaC}
  26.9,                                   ! Humidity Indicating Conditions at Maximum Dry-Bulb {BasedOnField A3}
  100965,                                 ! Barometric Pressure {Pa}
  6.6,                                    ! Wind Speed {m/s}
  140,                                    ! Wind Direction {deg}
  0,                                      ! Sky Clearness
  0,                                      ! Rain Indicator
  0,                                      ! Snow Indicator
  21,                                     ! Day of Month
  8,                                      ! Month
  SummerDesignDay,                        ! Day Type
  0,                                      ! Daylight Saving Time Indicator
  Wetbulb,                                ! Humidity Indicating Type
  ,                                       ! Humidity Indicating Day Schedule Name
  DefaultMultipliers,                     ! Dry-Bulb Temperature Range Modifier Type
  ,                                       ! Dry-Bulb Temperature Range Modifier Schedule Name
  ASHRAETau,                              ! Solar Model Indicator
  ,                                       ! Beam Solar Day Schedule Name
  ,                                       ! Diffuse Solar Day Schedule Name
  0.461,                                  ! ASHRAE Taub {dimensionless}
  2.107;                                  ! ASHRAE Taud {dimensionless}

OS:ComponentData,
  {f55d46d1-4f73-4086-834d-2b10872249dd}, ! Handle
  Component Data 1,                       ! Name
  {f06e7ef9-6dc7-4073-a4e8-e3a692e67735}, ! UUID
  {2269e8f5-2920-4554-99f2-ebad2b991381}, ! Version UUID
  1366310819,                             ! Creation Timestamp
  1366310819,                             ! Version Timestamp
  {58596c2d-01de-4a98-b6c9-4e88d5969235}; ! Name of Object 1

