
OS:Version,
  {33c12817-a8de-4c16-a809-110666d3b454}, ! Handle
  0.9.3;                                  ! Version Identifier

OS:SizingPeriod:DesignDay,
  {bc75e3be-a58e-4fce-85eb-221cd8e1724b}, ! Handle
  MOBILE Ann Clg 2% Condns DB=>MWB,       ! Name
  32.4,                                   ! Maximum Dry-Bulb Temperature {C}
  9.4,                                    ! Daily Dry-Bulb Temperature Range {deltaC}
  24.5,                                   ! Humidity Indicating Conditions at Maximum Dry-Bulb {BasedOnField A3}
  100523,                                 ! Barometric Pressure {Pa}
  3.5,                                    ! Wind Speed {m/s}
  350,                                    ! Wind Direction {deg}
  0,                                      ! Sky Clearness
  0,                                      ! Rain Indicator
  0,                                      ! Snow Indicator
  21,                                     ! Day of Month
  7,                                      ! Month
  SummerDesignDay,                        ! Day Type
  0,                                      ! Daylight Saving Time Indicator
  Wetbulb,                                ! Humidity Indicating Type
  ,                                       ! Humidity Indicating Day Schedule Name
  DefaultMultipliers,                     ! Dry-Bulb Temperature Range Modifier Type
  ,                                       ! Dry-Bulb Temperature Range Modifier Schedule Name
  ASHRAETau,                              ! Solar Model Indicator
  ,                                       ! Beam Solar Day Schedule Name
  ,                                       ! Diffuse Solar Day Schedule Name
  0.538,                                  ! ASHRAE Taub {dimensionless}
  1.867;                                  ! ASHRAE Taud {dimensionless}

OS:ComponentData,
  {fc0369d1-38a8-45db-900c-a3a5c5155676}, ! Handle
  Component Data 1,                       ! Name
  {f0e02448-c7b0-458f-88b9-a4f296a77e7f}, ! UUID
  {196b35ad-29d9-42f8-a6ac-ae53efd7131c}, ! Version UUID
  1366305836,                             ! Creation Timestamp
  1366305836,                             ! Version Timestamp
  {bc75e3be-a58e-4fce-85eb-221cd8e1724b}; ! Name of Object 1

