
OS:Version,
  {b2ca1bba-d3d7-40fc-bb4f-495d0e13169e}, ! Handle
  0.9.3;                                  ! Version Identifier

OS:SizingPeriod:DesignDay,
  {652e77be-d181-4cb9-80a1-288735722c5f}, ! Handle
  SPOKANE Ann Htg Wind 99% Condns WS=>MCDB, ! Name
  1.1,                                    ! Maximum Dry-Bulb Temperature {C}
  0,                                      ! Daily Dry-Bulb Temperature Range {deltaC}
  1.1,                                    ! Humidity Indicating Conditions at Maximum Dry-Bulb {BasedOnField A3}
  92958,                                  ! Barometric Pressure {Pa}
  11.3,                                   ! Wind Speed {m/s}
  20,                                     ! Wind Direction {deg}
  0,                                      ! Sky Clearness
  0,                                      ! Rain Indicator
  0,                                      ! Snow Indicator
  21,                                     ! Day of Month
  12,                                     ! Month
  WinterDesignDay,                        ! Day Type
  0,                                      ! Daylight Saving Time Indicator
  Wetbulb,                                ! Humidity Indicating Type
  ,                                       ! Humidity Indicating Day Schedule Name
  DefaultMultipliers,                     ! Dry-Bulb Temperature Range Modifier Type
  ,                                       ! Dry-Bulb Temperature Range Modifier Schedule Name
  ASHRAEClearSky;                         ! Solar Model Indicator

