
OS:Version,
  {379d1c12-b1ae-4605-99c0-106a01793eb6}, ! Handle
  0.9.3;                                  ! Version Identifier

OS:SizingPeriod:DesignDay,
  {ad33a2ef-96ef-4dbf-9bce-acd814f1ee3d}, ! Handle
  Santa Rosa  Awos Ann Clg 1% Condns DB=>MWB, ! Name
  32.8,                                   ! Maximum Dry-Bulb Temperature {C}
  16.8,                                   ! Daily Dry-Bulb Temperature Range {deltaC}
  19.2,                                   ! Humidity Indicating Conditions at Maximum Dry-Bulb {BasedOnField A3}
  100869,                                 ! Barometric Pressure {Pa}
  3.9,                                    ! Wind Speed {m/s}
  180,                                    ! Wind Direction {deg}
  0,                                      ! Sky Clearness
  0,                                      ! Rain Indicator
  0,                                      ! Snow Indicator
  21,                                     ! Day of Month
  7,                                      ! Month
  SummerDesignDay,                        ! Day Type
  0,                                      ! Daylight Saving Time Indicator
  Wetbulb,                                ! Humidity Indicating Type
  ,                                       ! Humidity Indicating Day Schedule Name
  DefaultMultipliers,                     ! Dry-Bulb Temperature Range Modifier Type
  ,                                       ! Dry-Bulb Temperature Range Modifier Schedule Name
  ASHRAETau,                              ! Solar Model Indicator
  ,                                       ! Beam Solar Day Schedule Name
  ,                                       ! Diffuse Solar Day Schedule Name
  0.357,                                  ! ASHRAE Taub {dimensionless}
  2.519;                                  ! ASHRAE Taud {dimensionless}

OS:ComponentData,
  {951ea207-c68a-466f-bd4b-564349af725e}, ! Handle
  Component Data 1,                       ! Name
  {fe6ca397-e8df-4c14-bd93-96e28e4a1df4}, ! UUID
  {9ce9127e-a933-4a7f-8938-06a5771fde06}, ! Version UUID
  1366306619,                             ! Creation Timestamp
  1366306619,                             ! Version Timestamp
  {ad33a2ef-96ef-4dbf-9bce-acd814f1ee3d}; ! Name of Object 1

