
OS:Version,
  {f05181af-dcc5-4621-9466-ccecee5298d6}, ! Handle
  0.9.3;                                  ! Version Identifier

OS:SizingPeriod:DesignDay,
  {3cacbc31-64f9-4d26-b38e-4acc9677f43b}, ! Handle
  Manchester Airport Ann Clg .4% Condns DP=>MDB, ! Name
  27,                                     ! Maximum Dry-Bulb Temperature {C}
  10.9,                                   ! Daily Dry-Bulb Temperature Range {deltaC}
  22.5,                                   ! Humidity Indicating Conditions at Maximum Dry-Bulb {BasedOnField A3}
  100499,                                 ! Barometric Pressure {Pa}
  4.2,                                    ! Wind Speed {m/s}
  270,                                    ! Wind Direction {deg}
  0,                                      ! Sky Clearness
  0,                                      ! Rain Indicator
  0,                                      ! Snow Indicator
  21,                                     ! Day of Month
  7,                                      ! Month
  SummerDesignDay,                        ! Day Type
  0,                                      ! Daylight Saving Time Indicator
  Dewpoint,                               ! Humidity Indicating Type
  ,                                       ! Humidity Indicating Day Schedule Name
  DefaultMultipliers,                     ! Dry-Bulb Temperature Range Modifier Type
  ,                                       ! Dry-Bulb Temperature Range Modifier Schedule Name
  ASHRAETau,                              ! Solar Model Indicator
  ,                                       ! Beam Solar Day Schedule Name
  ,                                       ! Diffuse Solar Day Schedule Name
  0.466,                                  ! ASHRAE Taub {dimensionless}
  2.001;                                  ! ASHRAE Taud {dimensionless}

OS:ComponentData,
  {72f1e180-fa74-4be6-a237-6d98575d7b7f}, ! Handle
  Component Data 1,                       ! Name
  {feb82168-bdcb-4a2c-9e32-3a643b0dae61}, ! UUID
  {e328493d-6dc8-4167-b8a3-2dfe1e971ae8}, ! Version UUID
  1366309265,                             ! Creation Timestamp
  1366309265,                             ! Version Timestamp
  {3cacbc31-64f9-4d26-b38e-4acc9677f43b}; ! Name of Object 1

