
OS:Version,
  {09310b52-d2b1-447e-a145-a368ecb803ba}, ! Handle
  0.9.3;                                  ! Version Identifier

OS:SizingPeriod:DesignDay,
  {e2367ba1-016e-4583-b62d-705e2bd56130}, ! Handle
  Prescott Love Field Ann Clg 1% Condns Enth=>MDB, ! Name
  26.3,                                   ! Maximum Dry-Bulb Temperature {C}
  14.5,                                   ! Daily Dry-Bulb Temperature Range {deltaC}
  59500,                                  ! Humidity Indicating Conditions at Maximum Dry-Bulb {BasedOnField A3}
  84173,                                  ! Barometric Pressure {Pa}
  4.8,                                    ! Wind Speed {m/s}
  240,                                    ! Wind Direction {deg}
  0,                                      ! Sky Clearness
  0,                                      ! Rain Indicator
  0,                                      ! Snow Indicator
  21,                                     ! Day of Month
  7,                                      ! Month
  SummerDesignDay,                        ! Day Type
  0,                                      ! Daylight Saving Time Indicator
  Enthalpy,                               ! Humidity Indicating Type
  ,                                       ! Humidity Indicating Day Schedule Name
  DefaultMultipliers,                     ! Dry-Bulb Temperature Range Modifier Type
  ,                                       ! Dry-Bulb Temperature Range Modifier Schedule Name
  ASHRAETau,                              ! Solar Model Indicator
  ,                                       ! Beam Solar Day Schedule Name
  ,                                       ! Diffuse Solar Day Schedule Name
  0.445,                                  ! ASHRAE Taub {dimensionless}
  1.967;                                  ! ASHRAE Taud {dimensionless}

OS:ComponentData,
  {52f6303e-c65a-4c05-9673-2b0bc4ea9f0e}, ! Handle
  Component Data 1,                       ! Name
  {1a972e5f-916d-4a47-9743-391d630e8190}, ! UUID
  {aee06365-f693-468f-bf39-efcea5f62c16}, ! Version UUID
  1366306305,                             ! Creation Timestamp
  1366306305,                             ! Version Timestamp
  {e2367ba1-016e-4583-b62d-705e2bd56130}; ! Name of Object 1

