
OS:Version,
  {ec2053da-0fc6-431a-a1f9-10f4cb06766f}, ! Handle
  0.9.3;                                  ! Version Identifier

OS:SizingPeriod:DesignDay,
  {93e5c7d3-4ef8-45dc-9519-9c4efd3db036}, ! Handle
  Patuxent River Nas Ann Clg 1% Condns DB=>MWB, ! Name
  32.2,                                   ! Maximum Dry-Bulb Temperature {C}
  8.6,                                    ! Daily Dry-Bulb Temperature Range {deltaC}
  24.3,                                   ! Humidity Indicating Conditions at Maximum Dry-Bulb {BasedOnField A3}
  101157,                                 ! Barometric Pressure {Pa}
  3.9,                                    ! Wind Speed {m/s}
  250,                                    ! Wind Direction {deg}
  0,                                      ! Sky Clearness
  0,                                      ! Rain Indicator
  0,                                      ! Snow Indicator
  21,                                     ! Day of Month
  7,                                      ! Month
  SummerDesignDay,                        ! Day Type
  0,                                      ! Daylight Saving Time Indicator
  Wetbulb,                                ! Humidity Indicating Type
  ,                                       ! Humidity Indicating Day Schedule Name
  DefaultMultipliers,                     ! Dry-Bulb Temperature Range Modifier Type
  ,                                       ! Dry-Bulb Temperature Range Modifier Schedule Name
  ASHRAETau,                              ! Solar Model Indicator
  ,                                       ! Beam Solar Day Schedule Name
  ,                                       ! Diffuse Solar Day Schedule Name
  0.592,                                  ! ASHRAE Taub {dimensionless}
  1.683;                                  ! ASHRAE Taud {dimensionless}

OS:ComponentData,
  {84a0a30f-c574-49c1-9bbd-85264cb7ec31}, ! Handle
  Component Data 1,                       ! Name
  {1d51ab41-9cd9-4d7a-9684-928df85c0e86}, ! UUID
  {1939a2f5-f712-402e-9b20-35ff866d153e}, ! Version UUID
  1366307857,                             ! Creation Timestamp
  1366307857,                             ! Version Timestamp
  {93e5c7d3-4ef8-45dc-9519-9c4efd3db036}; ! Name of Object 1

