
OS:Version,
  {01e2b708-9092-4eb7-b0ca-f18bfe415790}, ! Handle
  0.9.3;                                  ! Version Identifier

OS:SizingPeriod:DesignDay,
  {8b8694a3-7e14-4b3b-b6da-49dcb970fd1e}, ! Handle
  Marietta Dobbins Afb Ann Clg 2% Condns WB=>MDB, ! Name
  29.4,                                   ! Maximum Dry-Bulb Temperature {C}
  9.6,                                    ! Daily Dry-Bulb Temperature Range {deltaC}
  23.9,                                   ! Humidity Indicating Conditions at Maximum Dry-Bulb {BasedOnField A3}
  97423,                                  ! Barometric Pressure {Pa}
  2.7,                                    ! Wind Speed {m/s}
  300,                                    ! Wind Direction {deg}
  0,                                      ! Sky Clearness
  0,                                      ! Rain Indicator
  0,                                      ! Snow Indicator
  21,                                     ! Day of Month
  7,                                      ! Month
  SummerDesignDay,                        ! Day Type
  0,                                      ! Daylight Saving Time Indicator
  Wetbulb,                                ! Humidity Indicating Type
  ,                                       ! Humidity Indicating Day Schedule Name
  DefaultMultipliers,                     ! Dry-Bulb Temperature Range Modifier Type
  ,                                       ! Dry-Bulb Temperature Range Modifier Schedule Name
  ASHRAETau,                              ! Solar Model Indicator
  ,                                       ! Beam Solar Day Schedule Name
  ,                                       ! Diffuse Solar Day Schedule Name
  0.558,                                  ! ASHRAE Taub {dimensionless}
  1.77;                                   ! ASHRAE Taud {dimensionless}

OS:ComponentData,
  {981a5437-e8bf-462a-a87a-69832684a4cb}, ! Handle
  Component Data 1,                       ! Name
  {322e352d-7e2d-4beb-a4a8-4be9e3485f1e}, ! UUID
  {d6a44854-a4e7-4fee-a1ca-5219321dbd25}, ! Version UUID
  1366307032,                             ! Creation Timestamp
  1366307032,                             ! Version Timestamp
  {8b8694a3-7e14-4b3b-b6da-49dcb970fd1e}; ! Name of Object 1

