
OS:Version,
  {23d017df-b4dc-4972-a505-eb9e2d74737a}, ! Handle
  0.9.3;                                  ! Version Identifier

OS:SizingPeriod:DesignDay,
  {9d6f0a53-38ec-4b0d-aae4-3c13c82519b4}, ! Handle
  MASSENA Ann Hum_n 99% Condns DP=>MCDB,  ! Name
  -22.2,                                  ! Maximum Dry-Bulb Temperature {C}
  0,                                      ! Daily Dry-Bulb Temperature Range {deltaC}
  -27,                                    ! Humidity Indicating Conditions at Maximum Dry-Bulb {BasedOnField A3}
  100570,                                 ! Barometric Pressure {Pa}
  1.8,                                    ! Wind Speed {m/s}
  270,                                    ! Wind Direction {deg}
  0,                                      ! Sky Clearness
  0,                                      ! Rain Indicator
  0,                                      ! Snow Indicator
  21,                                     ! Day of Month
  1,                                      ! Month
  WinterDesignDay,                        ! Day Type
  0,                                      ! Daylight Saving Time Indicator
  Dewpoint,                               ! Humidity Indicating Type
  ,                                       ! Humidity Indicating Day Schedule Name
  DefaultMultipliers,                     ! Dry-Bulb Temperature Range Modifier Type
  ,                                       ! Dry-Bulb Temperature Range Modifier Schedule Name
  ASHRAEClearSky;                         ! Solar Model Indicator

OS:ComponentData,
  {f834ada3-9c1d-445c-9b1a-6301f59b37dd}, ! Handle
  Component Data 1,                       ! Name
  {318a1349-fb7e-4d18-a438-ca2ddfee1d2b}, ! UUID
  {4342a4e6-e6a9-43ef-b854-423b17efc5c0}, ! Version UUID
  1366309645,                             ! Creation Timestamp
  1366309645,                             ! Version Timestamp
  {9d6f0a53-38ec-4b0d-aae4-3c13c82519b4}; ! Name of Object 1

