
OS:Version,
  {71354947-2a67-4300-8ad6-627b6ee9bd3c}, ! Handle
  0.9.3;                                  ! Version Identifier

OS:SizingPeriod:DesignDay,
  {b6138dba-7fc9-4fc4-8d44-078530a71156}, ! Handle
  Olympia Airport Ann Htg 99% Condns DB,  ! Name
  -4.4,                                   ! Maximum Dry-Bulb Temperature {C}
  0,                                      ! Daily Dry-Bulb Temperature Range {deltaC}
  -4.4,                                   ! Humidity Indicating Conditions at Maximum Dry-Bulb {BasedOnField A3}
  100570,                                 ! Barometric Pressure {Pa}
  1.6,                                    ! Wind Speed {m/s}
  40,                                     ! Wind Direction {deg}
  0,                                      ! Sky Clearness
  0,                                      ! Rain Indicator
  0,                                      ! Snow Indicator
  21,                                     ! Day of Month
  12,                                     ! Month
  WinterDesignDay,                        ! Day Type
  0,                                      ! Daylight Saving Time Indicator
  Wetbulb,                                ! Humidity Indicating Type
  ,                                       ! Humidity Indicating Day Schedule Name
  DefaultMultipliers,                     ! Dry-Bulb Temperature Range Modifier Type
  ,                                       ! Dry-Bulb Temperature Range Modifier Schedule Name
  ASHRAEClearSky;                         ! Solar Model Indicator

OS:ComponentData,
  {905f7187-ad2e-48a1-85e2-0b38c91c7f77}, ! Handle
  Component Data 1,                       ! Name
  {5d44e68c-9e14-448b-b4e7-63de931ef2a0}, ! UUID
  {360fbe16-9405-48ef-8bc4-57e583f644e0}, ! Version UUID
  1366311313,                             ! Creation Timestamp
  1366311313,                             ! Version Timestamp
  {b6138dba-7fc9-4fc4-8d44-078530a71156}; ! Name of Object 1

