
OS:Version,
  {21e9da45-b9bc-439c-935e-855e73d7bb74}, ! Handle
  0.9.3;                                  ! Version Identifier

OS:SizingPeriod:DesignDay,
  {fd0823a0-b411-4b78-b25e-62f0cef89693}, ! Handle
  ROCHESTER Ann Clg .4% Condns WB=>MDB,   ! Name
  29.2,                                   ! Maximum Dry-Bulb Temperature {C}
  10.6,                                   ! Daily Dry-Bulb Temperature Range {deltaC}
  24.9,                                   ! Humidity Indicating Conditions at Maximum Dry-Bulb {BasedOnField A3}
  96588,                                  ! Barometric Pressure {Pa}
  6.7,                                    ! Wind Speed {m/s}
  200,                                    ! Wind Direction {deg}
  0,                                      ! Sky Clearness
  0,                                      ! Rain Indicator
  0,                                      ! Snow Indicator
  21,                                     ! Day of Month
  7,                                      ! Month
  SummerDesignDay,                        ! Day Type
  0,                                      ! Daylight Saving Time Indicator
  Wetbulb,                                ! Humidity Indicating Type
  ,                                       ! Humidity Indicating Day Schedule Name
  DefaultMultipliers,                     ! Dry-Bulb Temperature Range Modifier Type
  ,                                       ! Dry-Bulb Temperature Range Modifier Schedule Name
  ASHRAETau,                              ! Solar Model Indicator
  ,                                       ! Beam Solar Day Schedule Name
  ,                                       ! Diffuse Solar Day Schedule Name
  0.404,                                  ! ASHRAE Taub {dimensionless}
  2.226;                                  ! ASHRAE Taud {dimensionless}

OS:ComponentData,
  {6556c43d-24f6-413a-80cf-ac2dcf7c537f}, ! Handle
  Component Data 1,                       ! Name
  {c6d26587-789f-403c-88cb-18d483d8ef90}, ! UUID
  {a44e02dd-7cce-4b1e-944f-fe0f7127f9fc}, ! Version UUID
  1366308387,                             ! Creation Timestamp
  1366308387,                             ! Version Timestamp
  {fd0823a0-b411-4b78-b25e-62f0cef89693}; ! Name of Object 1

