
OS:Version,
  {c82b13af-0a6a-442f-bd59-6c924637515d}, ! Handle
  0.9.3;                                  ! Version Identifier

OS:SizingPeriod:DesignDay,
  {a48d8666-350e-471b-9c63-f49a2eb7f84b}, ! Handle
  MASON_CITY Ann Htg Wind 99.6% Condns WS=>MCDB, ! Name
  -9,                                     ! Maximum Dry-Bulb Temperature {C}
  0,                                      ! Daily Dry-Bulb Temperature Range {deltaC}
  -9,                                     ! Humidity Indicating Conditions at Maximum Dry-Bulb {BasedOnField A3}
  96924,                                  ! Barometric Pressure {Pa}
  15.1,                                   ! Wind Speed {m/s}
  300,                                    ! Wind Direction {deg}
  0,                                      ! Sky Clearness
  0,                                      ! Rain Indicator
  0,                                      ! Snow Indicator
  21,                                     ! Day of Month
  1,                                      ! Month
  WinterDesignDay,                        ! Day Type
  0,                                      ! Daylight Saving Time Indicator
  Wetbulb,                                ! Humidity Indicating Type
  ,                                       ! Humidity Indicating Day Schedule Name
  DefaultMultipliers,                     ! Dry-Bulb Temperature Range Modifier Type
  ,                                       ! Dry-Bulb Temperature Range Modifier Schedule Name
  ASHRAEClearSky;                         ! Solar Model Indicator

OS:ComponentData,
  {f61a40ab-fd33-4f5f-abda-48e972c93f14}, ! Handle
  Component Data 1,                       ! Name
  {09fb98ef-c103-4f53-83fd-c43999ea672b}, ! UUID
  {9625d41c-7eaf-4f3f-a9a3-16a4f2818c5b}, ! Version UUID
  1366307209,                             ! Creation Timestamp
  1366307209,                             ! Version Timestamp
  {a48d8666-350e-471b-9c63-f49a2eb7f84b}; ! Name of Object 1

