
OS:Version,
  {45524e20-35c1-4f1c-8cd6-665575f5fd0f}, ! Handle
  0.9.3;                                  ! Version Identifier

OS:SizingPeriod:DesignDay,
  {2cd9dbc0-5cb9-49a7-89d8-85f44dfd43b0}, ! Handle
  McGrath Ann Htg Wind 99% Condns WS=>MCDB, ! Name
  -8.5,                                   ! Maximum Dry-Bulb Temperature {C}
  0,                                      ! Daily Dry-Bulb Temperature Range {deltaC}
  -8.5,                                   ! Humidity Indicating Conditions at Maximum Dry-Bulb {BasedOnField A3}
  100094,                                 ! Barometric Pressure {Pa}
  7.8,                                    ! Wind Speed {m/s}
  300,                                    ! Wind Direction {deg}
  0,                                      ! Sky Clearness
  0,                                      ! Rain Indicator
  0,                                      ! Snow Indicator
  21,                                     ! Day of Month
  1,                                      ! Month
  WinterDesignDay,                        ! Day Type
  0,                                      ! Daylight Saving Time Indicator
  Wetbulb,                                ! Humidity Indicating Type
  ,                                       ! Humidity Indicating Day Schedule Name
  DefaultMultipliers,                     ! Dry-Bulb Temperature Range Modifier Type
  ,                                       ! Dry-Bulb Temperature Range Modifier Schedule Name
  ASHRAEClearSky;                         ! Solar Model Indicator

OS:ComponentData,
  {2587bb54-524d-4882-8ea0-6f716745e736}, ! Handle
  Component Data 1,                       ! Name
  {3f42b514-2e7e-4095-9086-20d9b912e75a}, ! UUID
  {75486622-3249-40a2-a374-cec3997985d5}, ! Version UUID
  1366305410,                             ! Creation Timestamp
  1366305410,                             ! Version Timestamp
  {2cd9dbc0-5cb9-49a7-89d8-85f44dfd43b0}; ! Name of Object 1

