
OS:Version,
  {01583c24-1644-4679-b91d-728388d58bd5}, ! Handle
  0.9.3;                                  ! Version Identifier

OS:SizingPeriod:DesignDay,
  {cb7044a7-9296-4f39-9c9e-b9c6812b23f1}, ! Handle
  Mountain View/Moffet N Ann Clg .4% Condns DB=>MWB, ! Name
  31.2,                                   ! Maximum Dry-Bulb Temperature {C}
  9.5,                                    ! Daily Dry-Bulb Temperature Range {deltaC}
  18.9,                                   ! Humidity Indicating Conditions at Maximum Dry-Bulb {BasedOnField A3}
  101181,                                 ! Barometric Pressure {Pa}
  3.9,                                    ! Wind Speed {m/s}
  340,                                    ! Wind Direction {deg}
  0,                                      ! Sky Clearness
  0,                                      ! Rain Indicator
  0,                                      ! Snow Indicator
  21,                                     ! Day of Month
  7,                                      ! Month
  SummerDesignDay,                        ! Day Type
  0,                                      ! Daylight Saving Time Indicator
  Wetbulb,                                ! Humidity Indicating Type
  ,                                       ! Humidity Indicating Day Schedule Name
  DefaultMultipliers,                     ! Dry-Bulb Temperature Range Modifier Type
  ,                                       ! Dry-Bulb Temperature Range Modifier Schedule Name
  ASHRAETau,                              ! Solar Model Indicator
  ,                                       ! Beam Solar Day Schedule Name
  ,                                       ! Diffuse Solar Day Schedule Name
  0.378,                                  ! ASHRAE Taub {dimensionless}
  2.37;                                   ! ASHRAE Taud {dimensionless}

OS:ComponentData,
  {1877130d-01e1-483f-88d4-4c53e791ab37}, ! Handle
  Component Data 1,                       ! Name
  {4c36697b-6975-4069-8563-b7315f27da0b}, ! UUID
  {a409a9ed-8c93-4ded-b3d7-67f11731d118}, ! Version UUID
  1366306505,                             ! Creation Timestamp
  1366306505,                             ! Version Timestamp
  {cb7044a7-9296-4f39-9c9e-b9c6812b23f1}; ! Name of Object 1

