
OS:Version,
  {36a72b33-10fa-4260-931a-811476724270}, ! Handle
  0.9.3;                                  ! Version Identifier

OS:SizingPeriod:DesignDay,
  {5ab1536a-8e53-4279-98a7-5d26b868750b}, ! Handle
  ROANOKE Ann Clg .4% Condns Enth=>MDB,   ! Name
  30.7,                                   ! Maximum Dry-Bulb Temperature {C}
  10.6,                                   ! Daily Dry-Bulb Temperature Range {deltaC}
  74400,                                  ! Humidity Indicating Conditions at Maximum Dry-Bulb {BasedOnField A3}
  97098,                                  ! Barometric Pressure {Pa}
  4,                                      ! Wind Speed {m/s}
  280,                                    ! Wind Direction {deg}
  0,                                      ! Sky Clearness
  0,                                      ! Rain Indicator
  0,                                      ! Snow Indicator
  21,                                     ! Day of Month
  7,                                      ! Month
  SummerDesignDay,                        ! Day Type
  0,                                      ! Daylight Saving Time Indicator
  Enthalpy,                               ! Humidity Indicating Type
  ,                                       ! Humidity Indicating Day Schedule Name
  DefaultMultipliers,                     ! Dry-Bulb Temperature Range Modifier Type
  ,                                       ! Dry-Bulb Temperature Range Modifier Schedule Name
  ASHRAETau,                              ! Solar Model Indicator
  ,                                       ! Beam Solar Day Schedule Name
  ,                                       ! Diffuse Solar Day Schedule Name
  0.529,                                  ! ASHRAE Taub {dimensionless}
  1.818;                                  ! ASHRAE Taud {dimensionless}

OS:ComponentData,
  {aea5c0ca-27d0-4ea5-9f9f-caa917e182b4}, ! Handle
  Component Data 1,                       ! Name
  {bbab5e76-e497-40a2-84b4-1110477b847f}, ! UUID
  {c0c65a2f-ce36-4e3a-a11b-cf3c8d0cb37a}, ! Version UUID
  1366311181,                             ! Creation Timestamp
  1366311181,                             ! Version Timestamp
  {5ab1536a-8e53-4279-98a7-5d26b868750b}; ! Name of Object 1

