
OS:Version,
  {f4531db9-bdb6-4ca9-8023-14ffea46233f}, ! Handle
  0.9.3;                                  ! Version Identifier

OS:SizingPeriod:DesignDay,
  {c866a82c-5ac4-4226-bd8f-dfaa9fd73df3}, ! Handle
  St Louis Lambert IntL Arpt Ann Clg 2% Condns WB=>MDB, ! Name
  30.8,                                   ! Maximum Dry-Bulb Temperature {C}
  9.5,                                    ! Daily Dry-Bulb Temperature Range {deltaC}
  25,                                     ! Humidity Indicating Conditions at Maximum Dry-Bulb {BasedOnField A3}
  99264,                                  ! Barometric Pressure {Pa}
  4.6,                                    ! Wind Speed {m/s}
  240,                                    ! Wind Direction {deg}
  0,                                      ! Sky Clearness
  0,                                      ! Rain Indicator
  0,                                      ! Snow Indicator
  21,                                     ! Day of Month
  7,                                      ! Month
  SummerDesignDay,                        ! Day Type
  0,                                      ! Daylight Saving Time Indicator
  Wetbulb,                                ! Humidity Indicating Type
  ,                                       ! Humidity Indicating Day Schedule Name
  DefaultMultipliers,                     ! Dry-Bulb Temperature Range Modifier Type
  ,                                       ! Dry-Bulb Temperature Range Modifier Schedule Name
  ASHRAETau,                              ! Solar Model Indicator
  ,                                       ! Beam Solar Day Schedule Name
  ,                                       ! Diffuse Solar Day Schedule Name
  0.47,                                   ! ASHRAE Taub {dimensionless}
  2.004;                                  ! ASHRAE Taud {dimensionless}

OS:ComponentData,
  {7a761433-83ee-4cf2-8d5e-f8894706a0a1}, ! Handle
  Component Data 1,                       ! Name
  {39b63b98-3948-4a6b-827c-aad9e39142d5}, ! UUID
  {16f57465-0508-415d-a652-46c069b6015b}, ! Version UUID
  1366308585,                             ! Creation Timestamp
  1366308585,                             ! Version Timestamp
  {c866a82c-5ac4-4226-bd8f-dfaa9fd73df3}; ! Name of Object 1

