
OS:Version,
  {4efad291-11fb-40ac-8479-81ed812b4b8b}, ! Handle
  0.9.3;                                  ! Version Identifier

OS:SizingPeriod:DesignDay,
  {dda07aa8-1ddc-44e1-937f-809b86bd51af}, ! Handle
  Palacios Municipal Ap Ann Clg .4% Condns DB=>MWB, ! Name
  33.5,                                   ! Maximum Dry-Bulb Temperature {C}
  6.4,                                    ! Daily Dry-Bulb Temperature Range {deltaC}
  26.1,                                   ! Humidity Indicating Conditions at Maximum Dry-Bulb {BasedOnField A3}
  101265,                                 ! Barometric Pressure {Pa}
  5.4,                                    ! Wind Speed {m/s}
  180,                                    ! Wind Direction {deg}
  0,                                      ! Sky Clearness
  0,                                      ! Rain Indicator
  0,                                      ! Snow Indicator
  21,                                     ! Day of Month
  7,                                      ! Month
  SummerDesignDay,                        ! Day Type
  0,                                      ! Daylight Saving Time Indicator
  Wetbulb,                                ! Humidity Indicating Type
  ,                                       ! Humidity Indicating Day Schedule Name
  DefaultMultipliers,                     ! Dry-Bulb Temperature Range Modifier Type
  ,                                       ! Dry-Bulb Temperature Range Modifier Schedule Name
  ASHRAETau,                              ! Solar Model Indicator
  ,                                       ! Beam Solar Day Schedule Name
  ,                                       ! Diffuse Solar Day Schedule Name
  0.484,                                  ! ASHRAE Taub {dimensionless}
  2.032;                                  ! ASHRAE Taud {dimensionless}

OS:ComponentData,
  {2ca16dc7-b3d5-4056-af16-93ac889a5db7}, ! Handle
  Component Data 1,                       ! Name
  {f77bd09a-99cb-4bec-a1af-9f15ef654ed1}, ! UUID
  {8a369c4f-b8ba-4faf-8029-f75be31d9fb6}, ! Version UUID
  1366310844,                             ! Creation Timestamp
  1366310844,                             ! Version Timestamp
  {dda07aa8-1ddc-44e1-937f-809b86bd51af}; ! Name of Object 1

