
OS:Version,
  {a8cd9e20-8bd8-469a-9ccc-68c47a3de540}, ! Handle
  0.9.3;                                  ! Version Identifier

OS:SizingPeriod:DesignDay,
  {233091ab-d43c-4458-b8e4-44e17d514d6a}, ! Handle
  Sidney Municipal Ap Ann Clg .4% Condns DB=>MWB, ! Name
  35.4,                                   ! Maximum Dry-Bulb Temperature {C}
  15.8,                                   ! Daily Dry-Bulb Temperature Range {deltaC}
  17.5,                                   ! Humidity Indicating Conditions at Maximum Dry-Bulb {BasedOnField A3}
  86514,                                  ! Barometric Pressure {Pa}
  5.4,                                    ! Wind Speed {m/s}
  170,                                    ! Wind Direction {deg}
  0,                                      ! Sky Clearness
  0,                                      ! Rain Indicator
  0,                                      ! Snow Indicator
  21,                                     ! Day of Month
  7,                                      ! Month
  SummerDesignDay,                        ! Day Type
  0,                                      ! Daylight Saving Time Indicator
  Wetbulb,                                ! Humidity Indicating Type
  ,                                       ! Humidity Indicating Day Schedule Name
  DefaultMultipliers,                     ! Dry-Bulb Temperature Range Modifier Type
  ,                                       ! Dry-Bulb Temperature Range Modifier Schedule Name
  ASHRAETau,                              ! Solar Model Indicator
  ,                                       ! Beam Solar Day Schedule Name
  ,                                       ! Diffuse Solar Day Schedule Name
  0.417,                                  ! ASHRAE Taub {dimensionless}
  2.037;                                  ! ASHRAE Taud {dimensionless}

OS:ComponentData,
  {5b628816-3c04-457f-bc1d-cfa3c25f0b78}, ! Handle
  Component Data 1,                       ! Name
  {6797db02-2573-4a99-884b-6189cd24461f}, ! UUID
  {efc6f6ba-5ecf-4870-b42e-95430121f7f1}, ! Version UUID
  1366309202,                             ! Creation Timestamp
  1366309202,                             ! Version Timestamp
  {233091ab-d43c-4458-b8e4-44e17d514d6a}; ! Name of Object 1

