
OS:Version,
  {f2f42913-84c7-45ce-99f9-1a6bb92d6f86}, ! Handle
  0.9.3;                                  ! Version Identifier

OS:SizingPeriod:DesignDay,
  {34d5b01b-ad1b-4c17-9a45-64ec124ede46}, ! Handle
  Ocala Muni  Awos Ann Htg Wind 99.6% Condns WS=>MCDB, ! Name
  20.3,                                   ! Maximum Dry-Bulb Temperature {C}
  0,                                      ! Daily Dry-Bulb Temperature Range {deltaC}
  20.3,                                   ! Humidity Indicating Conditions at Maximum Dry-Bulb {BasedOnField A3}
  101001,                                 ! Barometric Pressure {Pa}
  9.1,                                    ! Wind Speed {m/s}
  0,                                      ! Wind Direction {deg}
  0,                                      ! Sky Clearness
  0,                                      ! Rain Indicator
  0,                                      ! Snow Indicator
  21,                                     ! Day of Month
  1,                                      ! Month
  WinterDesignDay,                        ! Day Type
  0,                                      ! Daylight Saving Time Indicator
  Wetbulb,                                ! Humidity Indicating Type
  ,                                       ! Humidity Indicating Day Schedule Name
  DefaultMultipliers,                     ! Dry-Bulb Temperature Range Modifier Type
  ,                                       ! Dry-Bulb Temperature Range Modifier Schedule Name
  ASHRAEClearSky;                         ! Solar Model Indicator

OS:ComponentData,
  {232eedd2-de2d-4b4a-b834-b2e52ee188ee}, ! Handle
  Component Data 1,                       ! Name
  {c25b90da-def1-4b03-b6aa-ebc1bed14ae4}, ! UUID
  {22855cd3-c34f-4e5c-8490-411eaeac3ee9}, ! Version UUID
  1366306880,                             ! Creation Timestamp
  1366306880,                             ! Version Timestamp
  {34d5b01b-ad1b-4c17-9a45-64ec124ede46}; ! Name of Object 1

