
OS:Version,
  {76700e60-2def-4bce-8663-20e37364b50a}, ! Handle
  0.9.3;                                  ! Version Identifier

OS:SizingPeriod:DesignDay,
  {4ab72c79-ac03-4858-9b2b-a45a7bf10669}, ! Handle
  Orlando Executive Ap Ann Clg .4% Condns Enth=>MDB, ! Name
  30.1,                                   ! Maximum Dry-Bulb Temperature {C}
  8.8,                                    ! Daily Dry-Bulb Temperature Range {deltaC}
  82500,                                  ! Humidity Indicating Conditions at Maximum Dry-Bulb {BasedOnField A3}
  100929,                                 ! Barometric Pressure {Pa}
  3.7,                                    ! Wind Speed {m/s}
  270,                                    ! Wind Direction {deg}
  0,                                      ! Sky Clearness
  0,                                      ! Rain Indicator
  0,                                      ! Snow Indicator
  21,                                     ! Day of Month
  7,                                      ! Month
  SummerDesignDay,                        ! Day Type
  0,                                      ! Daylight Saving Time Indicator
  Enthalpy,                               ! Humidity Indicating Type
  ,                                       ! Humidity Indicating Day Schedule Name
  DefaultMultipliers,                     ! Dry-Bulb Temperature Range Modifier Type
  ,                                       ! Dry-Bulb Temperature Range Modifier Schedule Name
  ASHRAETau,                              ! Solar Model Indicator
  ,                                       ! Beam Solar Day Schedule Name
  ,                                       ! Diffuse Solar Day Schedule Name
  0.516,                                  ! ASHRAE Taub {dimensionless}
  1.924;                                  ! ASHRAE Taud {dimensionless}

OS:ComponentData,
  {56469912-0710-4935-a46c-4fcf5b9409dd}, ! Handle
  Component Data 1,                       ! Name
  {1cb1c007-601f-42a9-a64d-12a96ad03845}, ! UUID
  {6ad22b30-7214-440b-a008-7f484aebe4fd}, ! Version UUID
  1366306893,                             ! Creation Timestamp
  1366306893,                             ! Version Timestamp
  {4ab72c79-ac03-4858-9b2b-a45a7bf10669}; ! Name of Object 1

