
OS:Version,
  {c3bb4717-1412-4eff-bc7c-1923fab5304e}, ! Handle
  0.9.3;                                  ! Version Identifier

OS:SizingPeriod:DesignDay,
  {c1fe805e-04a8-4694-b7ab-9a653ca92b38}, ! Handle
  Wilkes Barre Scranton Intl Ap Ann Clg 1% Condns Enth=>MDB, ! Name
  27.7,                                   ! Maximum Dry-Bulb Temperature {C}
  10.8,                                   ! Daily Dry-Bulb Temperature Range {deltaC}
  69300,                                  ! Humidity Indicating Conditions at Maximum Dry-Bulb {BasedOnField A3}
  97959,                                  ! Barometric Pressure {Pa}
  4.5,                                    ! Wind Speed {m/s}
  240,                                    ! Wind Direction {deg}
  0,                                      ! Sky Clearness
  0,                                      ! Rain Indicator
  0,                                      ! Snow Indicator
  21,                                     ! Day of Month
  7,                                      ! Month
  SummerDesignDay,                        ! Day Type
  0,                                      ! Daylight Saving Time Indicator
  Enthalpy,                               ! Humidity Indicating Type
  ,                                       ! Humidity Indicating Day Schedule Name
  DefaultMultipliers,                     ! Dry-Bulb Temperature Range Modifier Type
  ,                                       ! Dry-Bulb Temperature Range Modifier Schedule Name
  ASHRAETau,                              ! Solar Model Indicator
  ,                                       ! Beam Solar Day Schedule Name
  ,                                       ! Diffuse Solar Day Schedule Name
  0.477,                                  ! ASHRAE Taub {dimensionless}
  1.945;                                  ! ASHRAE Taud {dimensionless}

OS:ComponentData,
  {fc1034c3-b43c-4d9a-b58f-4a1d299c61e1}, ! Handle
  Component Data 1,                       ! Name
  {c70260d2-982e-4c9b-8efc-8c3e7f3953f9}, ! UUID
  {f5d499c6-401b-4402-9b99-34232c1ee372}, ! Version UUID
  1366310267,                             ! Creation Timestamp
  1366310267,                             ! Version Timestamp
  {c1fe805e-04a8-4694-b7ab-9a653ca92b38}; ! Name of Object 1

