
OS:Version,
  {44ec96cb-d91a-41a5-b1f3-a8603af103db}, ! Handle
  0.9.3;                                  ! Version Identifier

OS:SizingPeriod:DesignDay,
  {97c99005-9523-4f3b-bc27-f859c885043b}, ! Handle
  MINNEAPOLIS Ann Htg Wind 99% Condns WS=>MCDB, ! Name
  -9.2,                                   ! Maximum Dry-Bulb Temperature {C}
  0,                                      ! Daily Dry-Bulb Temperature Range {deltaC}
  -9.2,                                   ! Humidity Indicating Conditions at Maximum Dry-Bulb {BasedOnField A3}
  98299,                                  ! Barometric Pressure {Pa}
  11.1,                                   ! Wind Speed {m/s}
  300,                                    ! Wind Direction {deg}
  0,                                      ! Sky Clearness
  0,                                      ! Rain Indicator
  0,                                      ! Snow Indicator
  21,                                     ! Day of Month
  1,                                      ! Month
  WinterDesignDay,                        ! Day Type
  0,                                      ! Daylight Saving Time Indicator
  Wetbulb,                                ! Humidity Indicating Type
  ,                                       ! Humidity Indicating Day Schedule Name
  DefaultMultipliers,                     ! Dry-Bulb Temperature Range Modifier Type
  ,                                       ! Dry-Bulb Temperature Range Modifier Schedule Name
  ASHRAEClearSky;                         ! Solar Model Indicator

OS:ComponentData,
  {64cb9860-dca5-4bb4-bf66-983c01bde0d5}, ! Handle
  Component Data 1,                       ! Name
  {1efd33b9-2afb-42b2-bc38-a5ec64dc1ea7}, ! UUID
  {70373503-29ce-4d76-ba11-ec3eeb1a0cf8}, ! Version UUID
  1366308311,                             ! Creation Timestamp
  1366308311,                             ! Version Timestamp
  {97c99005-9523-4f3b-bc27-f859c885043b}; ! Name of Object 1

