
OS:Version,
  {b03fa3de-9517-479f-92b2-d29dac5a16ed}, ! Handle
  0.9.3;                                  ! Version Identifier

OS:SizingPeriod:DesignDay,
  {5b888ffe-16d0-42d9-8bd6-8584b2b7f0da}, ! Handle
  Wise Lonesome Pine Ann Clg 1% Condns DP=>MDB, ! Name
  24.7,                                   ! Maximum Dry-Bulb Temperature {C}
  9.5,                                    ! Daily Dry-Bulb Temperature Range {deltaC}
  21.1,                                   ! Humidity Indicating Conditions at Maximum Dry-Bulb {BasedOnField A3}
  91888,                                  ! Barometric Pressure {Pa}
  2.5,                                    ! Wind Speed {m/s}
  170,                                    ! Wind Direction {deg}
  0,                                      ! Sky Clearness
  0,                                      ! Rain Indicator
  0,                                      ! Snow Indicator
  21,                                     ! Day of Month
  7,                                      ! Month
  SummerDesignDay,                        ! Day Type
  0,                                      ! Daylight Saving Time Indicator
  Dewpoint,                               ! Humidity Indicating Type
  ,                                       ! Humidity Indicating Day Schedule Name
  DefaultMultipliers,                     ! Dry-Bulb Temperature Range Modifier Type
  ,                                       ! Dry-Bulb Temperature Range Modifier Schedule Name
  ASHRAETau,                              ! Solar Model Indicator
  ,                                       ! Beam Solar Day Schedule Name
  ,                                       ! Diffuse Solar Day Schedule Name
  0.485,                                  ! ASHRAE Taub {dimensionless}
  1.901;                                  ! ASHRAE Taud {dimensionless}

OS:ComponentData,
  {6f84a76d-5cf6-4028-810c-7eba0cc9a956}, ! Handle
  Component Data 1,                       ! Name
  {42abb48b-95ec-4049-a96c-5967d72cda00}, ! UUID
  {cf40c1ba-cd19-4d20-b1a6-5644f89ded55}, ! Version UUID
  1366311230,                             ! Creation Timestamp
  1366311230,                             ! Version Timestamp
  {5b888ffe-16d0-42d9-8bd6-8584b2b7f0da}; ! Name of Object 1

