
OS:Version,
  {0abfc1c1-2489-4459-9ca0-b6c720142989}, ! Handle
  0.9.3;                                  ! Version Identifier

OS:SizingPeriod:DesignDay,
  {1bc16177-b025-4010-b599-6cb04a85c3ee}, ! Handle
  Rapid City Ann Clg 2% Condns WB=>MDB,   ! Name
  28.7,                                   ! Maximum Dry-Bulb Temperature {C}
  14.8,                                   ! Daily Dry-Bulb Temperature Range {deltaC}
  19.8,                                   ! Humidity Indicating Conditions at Maximum Dry-Bulb {BasedOnField A3}
  90246,                                  ! Barometric Pressure {Pa}
  6,                                      ! Wind Speed {m/s}
  180,                                    ! Wind Direction {deg}
  0,                                      ! Sky Clearness
  0,                                      ! Rain Indicator
  0,                                      ! Snow Indicator
  21,                                     ! Day of Month
  7,                                      ! Month
  SummerDesignDay,                        ! Day Type
  0,                                      ! Daylight Saving Time Indicator
  Wetbulb,                                ! Humidity Indicating Type
  ,                                       ! Humidity Indicating Day Schedule Name
  DefaultMultipliers,                     ! Dry-Bulb Temperature Range Modifier Type
  ,                                       ! Dry-Bulb Temperature Range Modifier Schedule Name
  ASHRAETau,                              ! Solar Model Indicator
  ,                                       ! Beam Solar Day Schedule Name
  ,                                       ! Diffuse Solar Day Schedule Name
  0.41,                                   ! ASHRAE Taub {dimensionless}
  2.134;                                  ! ASHRAE Taud {dimensionless}

