
OS:Version,
  {664025f1-e137-48ac-8b70-576cb80c4989}, ! Handle
  0.9.3;                                  ! Version Identifier

OS:SizingPeriod:DesignDay,
  {7afb9048-f201-4c22-a5ad-59f8a8e196b3}, ! Handle
  MOLINE Ann Hum_n 99.6% Condns DP=>MCDB, ! Name
  -20.5,                                  ! Maximum Dry-Bulb Temperature {C}
  0,                                      ! Daily Dry-Bulb Temperature Range {deltaC}
  -26.3,                                  ! Humidity Indicating Conditions at Maximum Dry-Bulb {BasedOnField A3}
  99169,                                  ! Barometric Pressure {Pa}
  4.1,                                    ! Wind Speed {m/s}
  280,                                    ! Wind Direction {deg}
  0,                                      ! Sky Clearness
  0,                                      ! Rain Indicator
  0,                                      ! Snow Indicator
  21,                                     ! Day of Month
  1,                                      ! Month
  WinterDesignDay,                        ! Day Type
  0,                                      ! Daylight Saving Time Indicator
  Dewpoint,                               ! Humidity Indicating Type
  ,                                       ! Humidity Indicating Day Schedule Name
  DefaultMultipliers,                     ! Dry-Bulb Temperature Range Modifier Type
  ,                                       ! Dry-Bulb Temperature Range Modifier Schedule Name
  ASHRAEClearSky;                         ! Solar Model Indicator

OS:ComponentData,
  {50bc4724-9070-4dd6-8708-58c4a1bc6ff3}, ! Handle
  Component Data 1,                       ! Name
  {43d05af0-a1ac-4ce9-a751-a42e15ee0d75}, ! UUID
  {ecc8e896-94a6-4114-8976-5b0536d644ad}, ! Version UUID
  1366307372,                             ! Creation Timestamp
  1366307372,                             ! Version Timestamp
  {7afb9048-f201-4c22-a5ad-59f8a8e196b3}; ! Name of Object 1

