
OS:Version,
  {0453ec05-ca85-4f1f-a911-0fb2884f24ef}, ! Handle
  0.9.3;                                  ! Version Identifier

OS:SizingPeriod:DesignDay,
  {c545acfa-c30f-4035-8d97-aac6637eab8f}, ! Handle
  Sault Ste Marie Sanderson Fie Ann Hum_n 99.6% Condns DP=>MCDB, ! Name
  -23.3,                                  ! Maximum Dry-Bulb Temperature {C}
  0,                                      ! Daily Dry-Bulb Temperature Range {deltaC}
  -29.1,                                  ! Humidity Indicating Conditions at Maximum Dry-Bulb {BasedOnField A3}
  98722,                                  ! Barometric Pressure {Pa}
  2.4,                                    ! Wind Speed {m/s}
  90,                                     ! Wind Direction {deg}
  0,                                      ! Sky Clearness
  0,                                      ! Rain Indicator
  0,                                      ! Snow Indicator
  21,                                     ! Day of Month
  1,                                      ! Month
  WinterDesignDay,                        ! Day Type
  0,                                      ! Daylight Saving Time Indicator
  Dewpoint,                               ! Humidity Indicating Type
  ,                                       ! Humidity Indicating Day Schedule Name
  DefaultMultipliers,                     ! Dry-Bulb Temperature Range Modifier Type
  ,                                       ! Dry-Bulb Temperature Range Modifier Schedule Name
  ASHRAEClearSky;                         ! Solar Model Indicator

OS:ComponentData,
  {4f8b89da-84c0-49ab-8133-3e3620b81c18}, ! Handle
  Component Data 1,                       ! Name
  {9f32ee39-f0df-4996-b015-b52832f5bbb0}, ! UUID
  {1d0b2d80-9a6d-4762-9cea-016e76486e9c}, ! Version UUID
  1366308105,                             ! Creation Timestamp
  1366308105,                             ! Version Timestamp
  {c545acfa-c30f-4035-8d97-aac6637eab8f}; ! Name of Object 1

