
OS:Version,
  {c89cab96-1bb0-45c5-ac96-be919c2391ea}, ! Handle
  0.9.3;                                  ! Version Identifier

OS:SizingPeriod:DesignDay,
  {402315e2-fd98-427f-9c3d-4e03cebf32a2}, ! Handle
  New Orleans Alvin Callender F Ann Clg 1% Condns WB=>MDB, ! Name
  30.4,                                   ! Maximum Dry-Bulb Temperature {C}
  8.8,                                    ! Daily Dry-Bulb Temperature Range {deltaC}
  27.1,                                   ! Humidity Indicating Conditions at Maximum Dry-Bulb {BasedOnField A3}
  101301,                                 ! Barometric Pressure {Pa}
  2.3,                                    ! Wind Speed {m/s}
  90,                                     ! Wind Direction {deg}
  0,                                      ! Sky Clearness
  0,                                      ! Rain Indicator
  0,                                      ! Snow Indicator
  21,                                     ! Day of Month
  7,                                      ! Month
  SummerDesignDay,                        ! Day Type
  0,                                      ! Daylight Saving Time Indicator
  Wetbulb,                                ! Humidity Indicating Type
  ,                                       ! Humidity Indicating Day Schedule Name
  DefaultMultipliers,                     ! Dry-Bulb Temperature Range Modifier Type
  ,                                       ! Dry-Bulb Temperature Range Modifier Schedule Name
  ASHRAETau,                              ! Solar Model Indicator
  ,                                       ! Beam Solar Day Schedule Name
  ,                                       ! Diffuse Solar Day Schedule Name
  0.565,                                  ! ASHRAE Taub {dimensionless}
  1.798;                                  ! ASHRAE Taud {dimensionless}

OS:ComponentData,
  {f34590e3-9ca0-4424-b00c-c1369863f65a}, ! Handle
  Component Data 1,                       ! Name
  {5f8d39d0-03fc-4054-a692-704e759b2625}, ! UUID
  {631fb4ea-e1dc-40b7-9f7f-9e6472681bb5}, ! Version UUID
  1366307740,                             ! Creation Timestamp
  1366307740,                             ! Version Timestamp
  {402315e2-fd98-427f-9c3d-4e03cebf32a2}; ! Name of Object 1

