
OS:Version,
  {8546f400-f8f6-443f-b545-bd4aa53b9a36}, ! Handle
  0.9.3;                                  ! Version Identifier

OS:SizingPeriod:DesignDay,
  {b709b0b0-5d65-40de-ae24-f4ea3d9fd9f9}, ! Handle
  Redding Municipal Arpt Ann Htg 99.6% Condns DB, ! Name
  -2,                                     ! Maximum Dry-Bulb Temperature {C}
  0,                                      ! Daily Dry-Bulb Temperature Range {deltaC}
  -2,                                     ! Humidity Indicating Conditions at Maximum Dry-Bulb {BasedOnField A3}
  99500,                                  ! Barometric Pressure {Pa}
  1,                                      ! Wind Speed {m/s}
  0,                                      ! Wind Direction {deg}
  0,                                      ! Sky Clearness
  0,                                      ! Rain Indicator
  0,                                      ! Snow Indicator
  21,                                     ! Day of Month
  12,                                     ! Month
  WinterDesignDay,                        ! Day Type
  0,                                      ! Daylight Saving Time Indicator
  Wetbulb,                                ! Humidity Indicating Type
  ,                                       ! Humidity Indicating Day Schedule Name
  DefaultMultipliers,                     ! Dry-Bulb Temperature Range Modifier Type
  ,                                       ! Dry-Bulb Temperature Range Modifier Schedule Name
  ASHRAEClearSky;                         ! Solar Model Indicator

