
OS:Version,
  {194553a3-5cfc-48a4-b05d-d2e5f92f75a9}, ! Handle
  0.9.3;                                  ! Version Identifier

OS:SizingPeriod:DesignDay,
  {27c88577-fa1e-433b-971b-078b3383b34b}, ! Handle
  Yakutat State Arpt Ann Clg 2% Condns WB=>MDB, ! Name
  15.4,                                   ! Maximum Dry-Bulb Temperature {C}
  5.8,                                    ! Daily Dry-Bulb Temperature Range {deltaC}
  13.4,                                   ! Humidity Indicating Conditions at Maximum Dry-Bulb {BasedOnField A3}
  101229,                                 ! Barometric Pressure {Pa}
  3.4,                                    ! Wind Speed {m/s}
  320,                                    ! Wind Direction {deg}
  0,                                      ! Sky Clearness
  0,                                      ! Rain Indicator
  0,                                      ! Snow Indicator
  21,                                     ! Day of Month
  7,                                      ! Month
  SummerDesignDay,                        ! Day Type
  0,                                      ! Daylight Saving Time Indicator
  Wetbulb,                                ! Humidity Indicating Type
  ,                                       ! Humidity Indicating Day Schedule Name
  DefaultMultipliers,                     ! Dry-Bulb Temperature Range Modifier Type
  ,                                       ! Dry-Bulb Temperature Range Modifier Schedule Name
  ASHRAETau,                              ! Solar Model Indicator
  ,                                       ! Beam Solar Day Schedule Name
  ,                                       ! Diffuse Solar Day Schedule Name
  0.371,                                  ! ASHRAE Taub {dimensionless}
  2.194;                                  ! ASHRAE Taud {dimensionless}

OS:ComponentData,
  {46d69eff-d5a2-4de4-b1c2-51a558987ef6}, ! Handle
  Component Data 1,                       ! Name
  {5b6623bc-2c72-484b-ae88-64bb16060866}, ! UUID
  {9b742d19-b6a2-458c-8957-71cb7f206dfc}, ! Version UUID
  1366305631,                             ! Creation Timestamp
  1366305631,                             ! Version Timestamp
  {27c88577-fa1e-433b-971b-078b3383b34b}; ! Name of Object 1

