
OS:Version,
  {8c12dbbc-b970-4357-878f-343e61da9e3b}, ! Handle
  0.9.3;                                  ! Version Identifier

OS:SizingPeriod:DesignDay,
  {fd48194c-4b05-4a05-ab91-7f278b1919cd}, ! Handle
  Wichita Col  Jabara Ann Htg Wind 99.6% Condns WS=>MCDB, ! Name
  2.6,                                    ! Maximum Dry-Bulb Temperature {C}
  0,                                      ! Daily Dry-Bulb Temperature Range {deltaC}
  2.6,                                    ! Humidity Indicating Conditions at Maximum Dry-Bulb {BasedOnField A3}
  96230,                                  ! Barometric Pressure {Pa}
  14.3,                                   ! Wind Speed {m/s}
  350,                                    ! Wind Direction {deg}
  0,                                      ! Sky Clearness
  0,                                      ! Rain Indicator
  0,                                      ! Snow Indicator
  21,                                     ! Day of Month
  1,                                      ! Month
  WinterDesignDay,                        ! Day Type
  0,                                      ! Daylight Saving Time Indicator
  Wetbulb,                                ! Humidity Indicating Type
  ,                                       ! Humidity Indicating Day Schedule Name
  DefaultMultipliers,                     ! Dry-Bulb Temperature Range Modifier Type
  ,                                       ! Dry-Bulb Temperature Range Modifier Schedule Name
  ASHRAEClearSky;                         ! Solar Model Indicator

OS:ComponentData,
  {e763b36f-e4a5-4445-8657-3edf99bd099a}, ! Handle
  Component Data 1,                       ! Name
  {32760f93-ffdb-402b-9dfb-a105b6ddf6fb}, ! UUID
  {f0c04b4b-427c-4a8f-91b6-124b8d977a1c}, ! Version UUID
  1366307594,                             ! Creation Timestamp
  1366307594,                             ! Version Timestamp
  {fd48194c-4b05-4a05-ab91-7f278b1919cd}; ! Name of Object 1

