
OS:Version,
  {9b3b607e-eb40-4f94-add8-02c6f9175b23}, ! Handle
  0.9.3;                                  ! Version Identifier

OS:SizingPeriod:DesignDay,
  {5ee84b6f-7510-49b1-8ddd-5946eae2fd0b}, ! Handle
  MONTGOMERY Ann Clg .4% Condns DB=>MWB,  ! Name
  35.7,                                   ! Maximum Dry-Bulb Temperature {C}
  10.9,                                   ! Daily Dry-Bulb Temperature Range {deltaC}
  24.7,                                   ! Humidity Indicating Conditions at Maximum Dry-Bulb {BasedOnField A3}
  100582,                                 ! Barometric Pressure {Pa}
  3.1,                                    ! Wind Speed {m/s}
  300,                                    ! Wind Direction {deg}
  0,                                      ! Sky Clearness
  0,                                      ! Rain Indicator
  0,                                      ! Snow Indicator
  21,                                     ! Day of Month
  7,                                      ! Month
  SummerDesignDay,                        ! Day Type
  0,                                      ! Daylight Saving Time Indicator
  Wetbulb,                                ! Humidity Indicating Type
  ,                                       ! Humidity Indicating Day Schedule Name
  DefaultMultipliers,                     ! Dry-Bulb Temperature Range Modifier Type
  ,                                       ! Dry-Bulb Temperature Range Modifier Schedule Name
  ASHRAETau,                              ! Solar Model Indicator
  ,                                       ! Beam Solar Day Schedule Name
  ,                                       ! Diffuse Solar Day Schedule Name
  0.573,                                  ! ASHRAE Taub {dimensionless}
  1.761;                                  ! ASHRAE Taud {dimensionless}

OS:ComponentData,
  {30b0c585-95f7-44fe-aae5-7baf617908b0}, ! Handle
  Component Data 1,                       ! Name
  {1743d839-1689-4b21-bb5f-424571540376}, ! UUID
  {00e1a85b-5a36-4dbc-86f6-938007098c31}, ! Version UUID
  1366305938,                             ! Creation Timestamp
  1366305938,                             ! Version Timestamp
  {5ee84b6f-7510-49b1-8ddd-5946eae2fd0b}; ! Name of Object 1

