
OS:Version,
  {74e40fff-404e-416f-9165-c68406db8b38}, ! Handle
  0.9.3;                                  ! Version Identifier

OS:SizingPeriod:DesignDay,
  {ca593deb-aded-4c89-9541-0e994d7d691e}, ! Handle
  Sturgeon Bay Ann Clg 2% Condns WB=>MDB, ! Name
  24.6,                                   ! Maximum Dry-Bulb Temperature {C}
  9.2,                                    ! Daily Dry-Bulb Temperature Range {deltaC}
  20.6,                                   ! Humidity Indicating Conditions at Maximum Dry-Bulb {BasedOnField A3}
  98698,                                  ! Barometric Pressure {Pa}
  5.1,                                    ! Wind Speed {m/s}
  240,                                    ! Wind Direction {deg}
  0,                                      ! Sky Clearness
  0,                                      ! Rain Indicator
  0,                                      ! Snow Indicator
  21,                                     ! Day of Month
  7,                                      ! Month
  SummerDesignDay,                        ! Day Type
  0,                                      ! Daylight Saving Time Indicator
  Wetbulb,                                ! Humidity Indicating Type
  ,                                       ! Humidity Indicating Day Schedule Name
  DefaultMultipliers,                     ! Dry-Bulb Temperature Range Modifier Type
  ,                                       ! Dry-Bulb Temperature Range Modifier Schedule Name
  ASHRAETau,                              ! Solar Model Indicator
  ,                                       ! Beam Solar Day Schedule Name
  ,                                       ! Diffuse Solar Day Schedule Name
  0.426,                                  ! ASHRAE Taub {dimensionless}
  2.148;                                  ! ASHRAE Taud {dimensionless}

OS:ComponentData,
  {31003245-7a9f-4c78-9d4a-9ef1a4bcf3ff}, ! Handle
  Component Data 1,                       ! Name
  {fe923b49-d3f5-40dc-b241-dcb125f4c738}, ! UUID
  {bb3c96e4-b4ec-42d6-8523-1169e4a23a58}, ! Version UUID
  1366311587,                             ! Creation Timestamp
  1366311587,                             ! Version Timestamp
  {ca593deb-aded-4c89-9541-0e994d7d691e}; ! Name of Object 1

