
OS:Version,
  {71cd6f84-6489-4b61-962d-1b34b68c1c97}, ! Handle
  0.9.3;                                  ! Version Identifier

OS:SizingPeriod:DesignDay,
  {3d993e9c-1add-431b-a48b-ec7eba4fb36c}, ! Handle
  Medford Rogue Valley Intl Ap Ann Htg Wind 99% Condns WS=>MCDB, ! Name
  12,                                     ! Maximum Dry-Bulb Temperature {C}
  0,                                      ! Daily Dry-Bulb Temperature Range {deltaC}
  12,                                     ! Humidity Indicating Conditions at Maximum Dry-Bulb {BasedOnField A3}
  94378,                                  ! Barometric Pressure {Pa}
  9.2,                                    ! Wind Speed {m/s}
  120,                                    ! Wind Direction {deg}
  0,                                      ! Sky Clearness
  0,                                      ! Rain Indicator
  0,                                      ! Snow Indicator
  21,                                     ! Day of Month
  12,                                     ! Month
  WinterDesignDay,                        ! Day Type
  0,                                      ! Daylight Saving Time Indicator
  Wetbulb,                                ! Humidity Indicating Type
  ,                                       ! Humidity Indicating Day Schedule Name
  DefaultMultipliers,                     ! Dry-Bulb Temperature Range Modifier Type
  ,                                       ! Dry-Bulb Temperature Range Modifier Schedule Name
  ASHRAEClearSky;                         ! Solar Model Indicator

OS:ComponentData,
  {27f5922c-6fdb-4877-961f-1ef0d019e33b}, ! Handle
  Component Data 1,                       ! Name
  {20613a96-be18-498b-9950-9920aeb50dcf}, ! UUID
  {32ee70d7-ab8a-456e-81a5-2798bf1ecbb8}, ! Version UUID
  1366310034,                             ! Creation Timestamp
  1366310034,                             ! Version Timestamp
  {3d993e9c-1add-431b-a48b-ec7eba4fb36c}; ! Name of Object 1

