
OS:Version,
  {307bf389-e870-405a-8156-9b6da1db95f8}, ! Handle
  0.9.3;                                  ! Version Identifier

OS:SizingPeriod:DesignDay,
  {96b5703e-e3ce-4f1c-96d0-0ed42b5241a8}, ! Handle
  Ohio State Universi Ann Clg 2% Condns Enth=>MDB, ! Name
  27.6,                                   ! Maximum Dry-Bulb Temperature {C}
  10.4,                                   ! Daily Dry-Bulb Temperature Range {deltaC}
  70100,                                  ! Humidity Indicating Conditions at Maximum Dry-Bulb {BasedOnField A3}
  97971,                                  ! Barometric Pressure {Pa}
  4.5,                                    ! Wind Speed {m/s}
  240,                                    ! Wind Direction {deg}
  0,                                      ! Sky Clearness
  0,                                      ! Rain Indicator
  0,                                      ! Snow Indicator
  21,                                     ! Day of Month
  7,                                      ! Month
  SummerDesignDay,                        ! Day Type
  0,                                      ! Daylight Saving Time Indicator
  Enthalpy,                               ! Humidity Indicating Type
  ,                                       ! Humidity Indicating Day Schedule Name
  DefaultMultipliers,                     ! Dry-Bulb Temperature Range Modifier Type
  ,                                       ! Dry-Bulb Temperature Range Modifier Schedule Name
  ASHRAETau,                              ! Solar Model Indicator
  ,                                       ! Beam Solar Day Schedule Name
  ,                                       ! Diffuse Solar Day Schedule Name
  0.479,                                  ! ASHRAE Taub {dimensionless}
  1.957;                                  ! ASHRAE Taud {dimensionless}

OS:ComponentData,
  {97531797-ac45-4f09-ac30-88803def8c67}, ! Handle
  Component Data 1,                       ! Name
  {7b3ebabf-b1a2-40f4-9a73-61dcc6928fb0}, ! UUID
  {6651fe4e-1281-4ec2-b3b9-dddbbc559ac7}, ! Version UUID
  1366309842,                             ! Creation Timestamp
  1366309842,                             ! Version Timestamp
  {96b5703e-e3ce-4f1c-96d0-0ed42b5241a8}; ! Name of Object 1

