
OS:Version,
  {79e3046f-d734-47d2-a0e1-d82e2e912f8d}, ! Handle
  0.9.3;                                  ! Version Identifier

OS:SizingPeriod:DesignDay,
  {5ddc21b3-0ed3-408b-b922-138b6e210ae0}, ! Handle
  Pasco Ann Clg 2% Condns DB=>MWB,        ! Name
  33.6,                                   ! Maximum Dry-Bulb Temperature {C}
  17.8,                                   ! Daily Dry-Bulb Temperature Range {deltaC}
  19.5,                                   ! Humidity Indicating Conditions at Maximum Dry-Bulb {BasedOnField A3}
  99702,                                  ! Barometric Pressure {Pa}
  3.1,                                    ! Wind Speed {m/s}
  330,                                    ! Wind Direction {deg}
  0,                                      ! Sky Clearness
  0,                                      ! Rain Indicator
  0,                                      ! Snow Indicator
  21,                                     ! Day of Month
  7,                                      ! Month
  SummerDesignDay,                        ! Day Type
  0,                                      ! Daylight Saving Time Indicator
  Wetbulb,                                ! Humidity Indicating Type
  ,                                       ! Humidity Indicating Day Schedule Name
  DefaultMultipliers,                     ! Dry-Bulb Temperature Range Modifier Type
  ,                                       ! Dry-Bulb Temperature Range Modifier Schedule Name
  ASHRAETau,                              ! Solar Model Indicator
  ,                                       ! Beam Solar Day Schedule Name
  ,                                       ! Diffuse Solar Day Schedule Name
  0.398,                                  ! ASHRAE Taub {dimensionless}
  2.219;                                  ! ASHRAE Taud {dimensionless}

OS:ComponentData,
  {2e56ba1d-34f6-4540-9933-0ed442200284}, ! Handle
  Component Data 1,                       ! Name
  {26baf3b1-ba1c-4cbf-a7e6-bca45f84c1d3}, ! UUID
  {1e159cf2-4b91-4e2b-8b6a-d17155437a83}, ! Version UUID
  1366311319,                             ! Creation Timestamp
  1366311319,                             ! Version Timestamp
  {5ddc21b3-0ed3-408b-b922-138b6e210ae0}; ! Name of Object 1

