
OS:Version,
  {78a6c73e-8938-46c6-8b8b-4d1459a90962}, ! Handle
  0.9.3;                                  ! Version Identifier

OS:SizingPeriod:DesignDay,
  {07bbe41b-538e-45a8-883c-d0d988c13507}, ! Handle
  Spencer Ann Clg .4% Condns WB=>MDB,     ! Name
  30.9,                                   ! Maximum Dry-Bulb Temperature {C}
  11.3,                                   ! Daily Dry-Bulb Temperature Range {deltaC}
  25.4,                                   ! Humidity Indicating Conditions at Maximum Dry-Bulb {BasedOnField A3}
  96519,                                  ! Barometric Pressure {Pa}
  6.1,                                    ! Wind Speed {m/s}
  180,                                    ! Wind Direction {deg}
  0,                                      ! Sky Clearness
  0,                                      ! Rain Indicator
  0,                                      ! Snow Indicator
  21,                                     ! Day of Month
  7,                                      ! Month
  SummerDesignDay,                        ! Day Type
  0,                                      ! Daylight Saving Time Indicator
  Wetbulb,                                ! Humidity Indicating Type
  ,                                       ! Humidity Indicating Day Schedule Name
  DefaultMultipliers,                     ! Dry-Bulb Temperature Range Modifier Type
  ,                                       ! Dry-Bulb Temperature Range Modifier Schedule Name
  ASHRAETau,                              ! Solar Model Indicator
  ,                                       ! Beam Solar Day Schedule Name
  ,                                       ! Diffuse Solar Day Schedule Name
  0.401,                                  ! ASHRAE Taub {dimensionless}
  2.247;                                  ! ASHRAE Taud {dimensionless}

OS:ComponentData,
  {a2004a20-ec35-4e3d-98d3-1992a96f576c}, ! Handle
  Component Data 1,                       ! Name
  {dc5ae933-5731-4e21-989f-89d7a9643255}, ! UUID
  {3e6e502b-6621-42d4-b0e7-5c1cb7a748fe}, ! Version UUID
  1366307242,                             ! Creation Timestamp
  1366307242,                             ! Version Timestamp
  {07bbe41b-538e-45a8-883c-d0d988c13507}; ! Name of Object 1

