
OS:Version,
  {3b7370b5-6641-4765-89ee-9009e03e1e9f}, ! Handle
  0.9.3;                                  ! Version Identifier

OS:SizingPeriod:DesignDay,
  {9ecf8739-8855-4d1a-b9ea-1332ed97de28}, ! Handle
  Tallahassee Ann Clg 2% Condns DB=>MWB,  ! Name
  33.3,                                   ! Maximum Dry-Bulb Temperature {C}
  10.6,                                   ! Daily Dry-Bulb Temperature Range {deltaC}
  24.3,                                   ! Humidity Indicating Conditions at Maximum Dry-Bulb {BasedOnField A3}
  101073,                                 ! Barometric Pressure {Pa}
  3.4,                                    ! Wind Speed {m/s}
  10,                                     ! Wind Direction {deg}
  0,                                      ! Sky Clearness
  0,                                      ! Rain Indicator
  0,                                      ! Snow Indicator
  21,                                     ! Day of Month
  7,                                      ! Month
  SummerDesignDay,                        ! Day Type
  0,                                      ! Daylight Saving Time Indicator
  Wetbulb,                                ! Humidity Indicating Type
  ,                                       ! Humidity Indicating Day Schedule Name
  DefaultMultipliers,                     ! Dry-Bulb Temperature Range Modifier Type
  ,                                       ! Dry-Bulb Temperature Range Modifier Schedule Name
  ASHRAETau,                              ! Solar Model Indicator
  ,                                       ! Beam Solar Day Schedule Name
  ,                                       ! Diffuse Solar Day Schedule Name
  0.537,                                  ! ASHRAE Taub {dimensionless}
  1.879;                                  ! ASHRAE Taud {dimensionless}

OS:ComponentData,
  {4c7d129c-6551-4c98-badd-16e4acae5d5b}, ! Handle
  Component Data 1,                       ! Name
  {959b3374-21d5-44ac-b436-5d87dc77050f}, ! UUID
  {bf7a3517-b7a0-426a-8a5d-2bd4a9f3ee07}, ! Version UUID
  1366306924,                             ! Creation Timestamp
  1366306924,                             ! Version Timestamp
  {9ecf8739-8855-4d1a-b9ea-1332ed97de28}; ! Name of Object 1

