
OS:Version,
  {301a4f69-fd83-424c-b0a0-7a164e499b1c}, ! Handle
  0.9.3;                                  ! Version Identifier

OS:SizingPeriod:DesignDay,
  {da28b841-6e17-4e78-9ad7-c9541c57883f}, ! Handle
  Philadelphia International Ap Ann Htg Wind 99.6% Condns WS=>MCDB, ! Name
  2.8,                                    ! Maximum Dry-Bulb Temperature {C}
  0,                                      ! Daily Dry-Bulb Temperature Range {deltaC}
  2.8,                                    ! Humidity Indicating Conditions at Maximum Dry-Bulb {BasedOnField A3}
  101301,                                 ! Barometric Pressure {Pa}
  12.7,                                   ! Wind Speed {m/s}
  290,                                    ! Wind Direction {deg}
  0,                                      ! Sky Clearness
  0,                                      ! Rain Indicator
  0,                                      ! Snow Indicator
  21,                                     ! Day of Month
  1,                                      ! Month
  WinterDesignDay,                        ! Day Type
  0,                                      ! Daylight Saving Time Indicator
  Wetbulb,                                ! Humidity Indicating Type
  ,                                       ! Humidity Indicating Day Schedule Name
  DefaultMultipliers,                     ! Dry-Bulb Temperature Range Modifier Type
  ,                                       ! Dry-Bulb Temperature Range Modifier Schedule Name
  ASHRAEClearSky;                         ! Solar Model Indicator

OS:ComponentData,
  {a504510c-7ac8-447c-a7a3-6fcda2d48ee1}, ! Handle
  Component Data 1,                       ! Name
  {3f3cdf1d-671e-4911-9158-054241745273}, ! UUID
  {cc5a4418-fbb1-4918-a721-aea584e36048}, ! Version UUID
  1366310222,                             ! Creation Timestamp
  1366310222,                             ! Version Timestamp
  {da28b841-6e17-4e78-9ad7-c9541c57883f}; ! Name of Object 1

