
OS:Version,
  {8ef8d2bb-9cdc-4d1a-9819-d8d8b28d6dba}, ! Handle
  0.9.3;                                  ! Version Identifier

OS:SizingPeriod:DesignDay,
  {078b9aa6-2126-421b-a0c7-ebc44f25db57}, ! Handle
  Monroe Regional Ap Ann Clg .4% Condns DP=>MDB, ! Name
  29.8,                                   ! Maximum Dry-Bulb Temperature {C}
  10.6,                                   ! Daily Dry-Bulb Temperature Range {deltaC}
  25.8,                                   ! Humidity Indicating Conditions at Maximum Dry-Bulb {BasedOnField A3}
  100845,                                 ! Barometric Pressure {Pa}
  2.8,                                    ! Wind Speed {m/s}
  240,                                    ! Wind Direction {deg}
  0,                                      ! Sky Clearness
  0,                                      ! Rain Indicator
  0,                                      ! Snow Indicator
  21,                                     ! Day of Month
  7,                                      ! Month
  SummerDesignDay,                        ! Day Type
  0,                                      ! Daylight Saving Time Indicator
  Dewpoint,                               ! Humidity Indicating Type
  ,                                       ! Humidity Indicating Day Schedule Name
  DefaultMultipliers,                     ! Dry-Bulb Temperature Range Modifier Type
  ,                                       ! Dry-Bulb Temperature Range Modifier Schedule Name
  ASHRAETau,                              ! Solar Model Indicator
  ,                                       ! Beam Solar Day Schedule Name
  ,                                       ! Diffuse Solar Day Schedule Name
  0.512,                                  ! ASHRAE Taub {dimensionless}
  1.931;                                  ! ASHRAE Taud {dimensionless}

OS:ComponentData,
  {97d451e0-7d66-4435-890b-ab33ca907361}, ! Handle
  Component Data 1,                       ! Name
  {ad570def-e68f-4251-b5aa-e52465c3017a}, ! UUID
  {e97fa96f-436a-4371-b686-1528035ee376}, ! Version UUID
  1366307736,                             ! Creation Timestamp
  1366307736,                             ! Version Timestamp
  {078b9aa6-2126-421b-a0c7-ebc44f25db57}; ! Name of Object 1

