
OS:Version,
  {979a1aa0-937d-4bbf-b14a-c5dbb2573e1d}, ! Handle
  0.9.3;                                  ! Version Identifier

OS:SizingPeriod:DesignDay,
  {0bcb6c44-38a4-46c1-9ccf-8ae1b760bd07}, ! Handle
  Southern Illinois Ann Clg 1% Condns Enth=>MDB, ! Name
  31.7,                                   ! Maximum Dry-Bulb Temperature {C}
  10.4,                                   ! Daily Dry-Bulb Temperature Range {deltaC}
  81500,                                  ! Humidity Indicating Conditions at Maximum Dry-Bulb {BasedOnField A3}
  99797,                                  ! Barometric Pressure {Pa}
  3.8,                                    ! Wind Speed {m/s}
  200,                                    ! Wind Direction {deg}
  0,                                      ! Sky Clearness
  0,                                      ! Rain Indicator
  0,                                      ! Snow Indicator
  21,                                     ! Day of Month
  7,                                      ! Month
  SummerDesignDay,                        ! Day Type
  0,                                      ! Daylight Saving Time Indicator
  Enthalpy,                               ! Humidity Indicating Type
  ,                                       ! Humidity Indicating Day Schedule Name
  DefaultMultipliers,                     ! Dry-Bulb Temperature Range Modifier Type
  ,                                       ! Dry-Bulb Temperature Range Modifier Schedule Name
  ASHRAETau,                              ! Solar Model Indicator
  ,                                       ! Beam Solar Day Schedule Name
  ,                                       ! Diffuse Solar Day Schedule Name
  0.488,                                  ! ASHRAE Taub {dimensionless}
  1.955;                                  ! ASHRAE Taud {dimensionless}

