
OS:Version,
  {2c95b5d8-19a9-4852-bfe4-8d3eea5c2c07}, ! Handle
  0.9.3;                                  ! Version Identifier

OS:SizingPeriod:DesignDay,
  {c48a8840-a8b0-4051-96be-00335755117c}, ! Handle
  O Neill Baker Field Ann Clg 2% Condns DB=>MWB, ! Name
  31.3,                                   ! Maximum Dry-Bulb Temperature {C}
  12.3,                                   ! Daily Dry-Bulb Temperature Range {deltaC}
  20.7,                                   ! Humidity Indicating Conditions at Maximum Dry-Bulb {BasedOnField A3}
  94106,                                  ! Barometric Pressure {Pa}
  6.3,                                    ! Wind Speed {m/s}
  180,                                    ! Wind Direction {deg}
  0,                                      ! Sky Clearness
  0,                                      ! Rain Indicator
  0,                                      ! Snow Indicator
  21,                                     ! Day of Month
  7,                                      ! Month
  SummerDesignDay,                        ! Day Type
  0,                                      ! Daylight Saving Time Indicator
  Wetbulb,                                ! Humidity Indicating Type
  ,                                       ! Humidity Indicating Day Schedule Name
  DefaultMultipliers,                     ! Dry-Bulb Temperature Range Modifier Type
  ,                                       ! Dry-Bulb Temperature Range Modifier Schedule Name
  ASHRAETau,                              ! Solar Model Indicator
  ,                                       ! Beam Solar Day Schedule Name
  ,                                       ! Diffuse Solar Day Schedule Name
  0.398,                                  ! ASHRAE Taub {dimensionless}
  2.24;                                   ! ASHRAE Taud {dimensionless}

OS:ComponentData,
  {b54a42de-c4c8-4297-9ec3-68f426a6db33}, ! Handle
  Component Data 1,                       ! Name
  {72b9b238-2c95-4bf3-a115-65d2345cfc49}, ! UUID
  {03029d6d-59ee-43b1-880c-afb10ac5629f}, ! Version UUID
  1366309185,                             ! Creation Timestamp
  1366309185,                             ! Version Timestamp
  {c48a8840-a8b0-4051-96be-00335755117c}; ! Name of Object 1

