
OS:Version,
  {ecee95cf-b64c-4033-860c-5ac835492fe9}, ! Handle
  0.9.3;                                  ! Version Identifier

OS:SizingPeriod:DesignDay,
  {9ccac871-716f-4608-84f3-1db6e9b64f13}, ! Handle
  Montpelier Ap Ann Htg 99% Condns DB,    ! Name
  -21.1,                                  ! Maximum Dry-Bulb Temperature {C}
  0,                                      ! Daily Dry-Bulb Temperature Range {deltaC}
  -21.1,                                  ! Humidity Indicating Conditions at Maximum Dry-Bulb {BasedOnField A3}
  97272,                                  ! Barometric Pressure {Pa}
  2,                                      ! Wind Speed {m/s}
  320,                                    ! Wind Direction {deg}
  0,                                      ! Sky Clearness
  0,                                      ! Rain Indicator
  0,                                      ! Snow Indicator
  21,                                     ! Day of Month
  1,                                      ! Month
  WinterDesignDay,                        ! Day Type
  0,                                      ! Daylight Saving Time Indicator
  Wetbulb,                                ! Humidity Indicating Type
  ,                                       ! Humidity Indicating Day Schedule Name
  DefaultMultipliers,                     ! Dry-Bulb Temperature Range Modifier Type
  ,                                       ! Dry-Bulb Temperature Range Modifier Schedule Name
  ASHRAEClearSky;                         ! Solar Model Indicator

OS:ComponentData,
  {3bfe006d-741c-4c85-bb5d-37c4abaa43ea}, ! Handle
  Component Data 1,                       ! Name
  {38221706-77f2-465a-adfe-e02a1f38feb5}, ! UUID
  {1c900526-c1c1-4b50-a4cf-db7a55a37ae7}, ! Version UUID
  1366311250,                             ! Creation Timestamp
  1366311250,                             ! Version Timestamp
  {9ccac871-716f-4608-84f3-1db6e9b64f13}; ! Name of Object 1

