
OS:Version,
  {5b17ac64-ca37-4572-8d46-86097bbaa8ce}, ! Handle
  0.9.3;                                  ! Version Identifier

OS:SizingPeriod:DesignDay,
  {5e292e7d-b6f3-46da-8828-af995695c3d0}, ! Handle
  Ocala Muni  Awos Ann Clg .4% Condns DP=>MDB, ! Name
  28.1,                                   ! Maximum Dry-Bulb Temperature {C}
  10.3,                                   ! Daily Dry-Bulb Temperature Range {deltaC}
  24.6,                                   ! Humidity Indicating Conditions at Maximum Dry-Bulb {BasedOnField A3}
  101001,                                 ! Barometric Pressure {Pa}
  3.2,                                    ! Wind Speed {m/s}
  250,                                    ! Wind Direction {deg}
  0,                                      ! Sky Clearness
  0,                                      ! Rain Indicator
  0,                                      ! Snow Indicator
  21,                                     ! Day of Month
  7,                                      ! Month
  SummerDesignDay,                        ! Day Type
  0,                                      ! Daylight Saving Time Indicator
  Dewpoint,                               ! Humidity Indicating Type
  ,                                       ! Humidity Indicating Day Schedule Name
  DefaultMultipliers,                     ! Dry-Bulb Temperature Range Modifier Type
  ,                                       ! Dry-Bulb Temperature Range Modifier Schedule Name
  ASHRAETau,                              ! Solar Model Indicator
  ,                                       ! Beam Solar Day Schedule Name
  ,                                       ! Diffuse Solar Day Schedule Name
  0.524,                                  ! ASHRAE Taub {dimensionless}
  1.897;                                  ! ASHRAE Taud {dimensionless}

OS:ComponentData,
  {c77c8070-8a45-443a-b0fd-fa1816a4164f}, ! Handle
  Component Data 1,                       ! Name
  {d243161b-1a98-4c64-8fcb-e1425bd014a6}, ! UUID
  {2e7ea3f6-178e-4b61-87b6-9ebb56711ce2}, ! Version UUID
  1366306881,                             ! Creation Timestamp
  1366306881,                             ! Version Timestamp
  {5e292e7d-b6f3-46da-8828-af995695c3d0}; ! Name of Object 1

