
OS:Version,
  {17c4a5e9-9420-4906-9205-00025854745c}, ! Handle
  0.9.3;                                  ! Version Identifier

OS:SizingPeriod:DesignDay,
  {2b3a53ae-c89d-45e0-a2c9-eb7f5e654fb2}, ! Handle
  Williston Sloulin Intl Ap Ann Clg 1% Condns DP=>MDB, ! Name
  24.6,                                   ! Maximum Dry-Bulb Temperature {C}
  14.5,                                   ! Daily Dry-Bulb Temperature Range {deltaC}
  17.9,                                   ! Humidity Indicating Conditions at Maximum Dry-Bulb {BasedOnField A3}
  94549,                                  ! Barometric Pressure {Pa}
  5.5,                                    ! Wind Speed {m/s}
  150,                                    ! Wind Direction {deg}
  0,                                      ! Sky Clearness
  0,                                      ! Rain Indicator
  0,                                      ! Snow Indicator
  21,                                     ! Day of Month
  7,                                      ! Month
  SummerDesignDay,                        ! Day Type
  0,                                      ! Daylight Saving Time Indicator
  Dewpoint,                               ! Humidity Indicating Type
  ,                                       ! Humidity Indicating Day Schedule Name
  DefaultMultipliers,                     ! Dry-Bulb Temperature Range Modifier Type
  ,                                       ! Dry-Bulb Temperature Range Modifier Schedule Name
  ASHRAETau,                              ! Solar Model Indicator
  ,                                       ! Beam Solar Day Schedule Name
  ,                                       ! Diffuse Solar Day Schedule Name
  0.388,                                  ! ASHRAE Taub {dimensionless}
  2.236;                                  ! ASHRAE Taud {dimensionless}

OS:ComponentData,
  {3a768b4b-4a56-49a4-a973-ae7044cb244a}, ! Handle
  Component Data 1,                       ! Name
  {e8f672d4-b579-4884-9f54-3234c94928be}, ! UUID
  {b1aebebd-e16f-4dbe-9bba-072804d5625b}, ! Version UUID
  1366309074,                             ! Creation Timestamp
  1366309074,                             ! Version Timestamp
  {2b3a53ae-c89d-45e0-a2c9-eb7f5e654fb2}; ! Name of Object 1

