
OS:Version,
  {d847461c-8a99-4e8e-b48a-b801cc503b3b}, ! Handle
  0.9.3;                                  ! Version Identifier

OS:SizingPeriod:DesignDay,
  {faaf1c1d-0a2e-4a14-bd60-ea7da79eb1f1}, ! Handle
  Quantico Mcas Ann Clg 1% Condns DB=>MWB, ! Name
  32.4,                                   ! Maximum Dry-Bulb Temperature {C}
  9.5,                                    ! Daily Dry-Bulb Temperature Range {deltaC}
  24.4,                                   ! Humidity Indicating Conditions at Maximum Dry-Bulb {BasedOnField A3}
  101277,                                 ! Barometric Pressure {Pa}
  2.6,                                    ! Wind Speed {m/s}
  170,                                    ! Wind Direction {deg}
  0,                                      ! Sky Clearness
  0,                                      ! Rain Indicator
  0,                                      ! Snow Indicator
  21,                                     ! Day of Month
  7,                                      ! Month
  SummerDesignDay,                        ! Day Type
  0,                                      ! Daylight Saving Time Indicator
  Wetbulb,                                ! Humidity Indicating Type
  ,                                       ! Humidity Indicating Day Schedule Name
  DefaultMultipliers,                     ! Dry-Bulb Temperature Range Modifier Type
  ,                                       ! Dry-Bulb Temperature Range Modifier Schedule Name
  ASHRAETau,                              ! Solar Model Indicator
  ,                                       ! Beam Solar Day Schedule Name
  ,                                       ! Diffuse Solar Day Schedule Name
  0.574,                                  ! ASHRAE Taub {dimensionless}
  1.726;                                  ! ASHRAE Taud {dimensionless}

OS:ComponentData,
  {7b43daa7-023f-4bd0-b0c7-7d009af43c62}, ! Handle
  Component Data 1,                       ! Name
  {1b7d602a-a1d1-4d2b-afbd-744ac1e5d579}, ! UUID
  {766998d9-d822-4622-8817-66fccb315fb1}, ! Version UUID
  1366311158,                             ! Creation Timestamp
  1366311158,                             ! Version Timestamp
  {faaf1c1d-0a2e-4a14-bd60-ea7da79eb1f1}; ! Name of Object 1

