
OS:Version,
  {fc1e45b7-1ebd-4369-9753-aaf906d6eeb4}, ! Handle
  0.9.3;                                  ! Version Identifier

OS:SizingPeriod:DesignDay,
  {52495e00-85c5-4517-92d4-562dfbd5c6a7}, ! Handle
  Watertown Ap Ann Clg 2% Condns DP=>MDB, ! Name
  24.5,                                   ! Maximum Dry-Bulb Temperature {C}
  10.8,                                   ! Daily Dry-Bulb Temperature Range {deltaC}
  20.4,                                   ! Humidity Indicating Conditions at Maximum Dry-Bulb {BasedOnField A3}
  100165,                                 ! Barometric Pressure {Pa}
  4.8,                                    ! Wind Speed {m/s}
  250,                                    ! Wind Direction {deg}
  0,                                      ! Sky Clearness
  0,                                      ! Rain Indicator
  0,                                      ! Snow Indicator
  21,                                     ! Day of Month
  7,                                      ! Month
  SummerDesignDay,                        ! Day Type
  0,                                      ! Daylight Saving Time Indicator
  Dewpoint,                               ! Humidity Indicating Type
  ,                                       ! Humidity Indicating Day Schedule Name
  DefaultMultipliers,                     ! Dry-Bulb Temperature Range Modifier Type
  ,                                       ! Dry-Bulb Temperature Range Modifier Schedule Name
  ASHRAETau,                              ! Solar Model Indicator
  ,                                       ! Beam Solar Day Schedule Name
  ,                                       ! Diffuse Solar Day Schedule Name
  0.457,                                  ! ASHRAE Taub {dimensionless}
  2.015;                                  ! ASHRAE Taud {dimensionless}

OS:ComponentData,
  {1f54f009-2def-4ab2-a961-06b2d4c93277}, ! Handle
  Component Data 1,                       ! Name
  {50121398-f0bc-41ae-b332-70405bcd3f47}, ! UUID
  {d50658c9-417b-420a-829f-b10fad0bb962}, ! Version UUID
  1366309750,                             ! Creation Timestamp
  1366309750,                             ! Version Timestamp
  {52495e00-85c5-4517-92d4-562dfbd5c6a7}; ! Name of Object 1

