
OS:Version,
  {edad254c-4bea-49e6-bf0d-ef4514845939}, ! Handle
  0.9.3;                                  ! Version Identifier

OS:SizingPeriod:DesignDay,
  {55c6190b-a41e-446f-b622-5c5ac6b5e6b3}, ! Handle
  Mansfield Lahm Municipal Arpt Ann Clg 2% Condns DP=>MDB, ! Name
  25.4,                                   ! Maximum Dry-Bulb Temperature {C}
  10.3,                                   ! Daily Dry-Bulb Temperature Range {deltaC}
  21.2,                                   ! Humidity Indicating Conditions at Maximum Dry-Bulb {BasedOnField A3}
  96669,                                  ! Barometric Pressure {Pa}
  4.7,                                    ! Wind Speed {m/s}
  230,                                    ! Wind Direction {deg}
  0,                                      ! Sky Clearness
  0,                                      ! Rain Indicator
  0,                                      ! Snow Indicator
  21,                                     ! Day of Month
  7,                                      ! Month
  SummerDesignDay,                        ! Day Type
  0,                                      ! Daylight Saving Time Indicator
  Dewpoint,                               ! Humidity Indicating Type
  ,                                       ! Humidity Indicating Day Schedule Name
  DefaultMultipliers,                     ! Dry-Bulb Temperature Range Modifier Type
  ,                                       ! Dry-Bulb Temperature Range Modifier Schedule Name
  ASHRAETau,                              ! Solar Model Indicator
  ,                                       ! Beam Solar Day Schedule Name
  ,                                       ! Diffuse Solar Day Schedule Name
  0.456,                                  ! ASHRAE Taub {dimensionless}
  2.029;                                  ! ASHRAE Taud {dimensionless}

OS:ComponentData,
  {6d653767-4e66-48da-8538-561ff0459c1e}, ! Handle
  Component Data 1,                       ! Name
  {62524132-0d6e-42aa-8c8e-5a5271041245}, ! UUID
  {8c6cad57-c488-4790-89cc-6d8d15e8c7b1}, ! Version UUID
  1366309832,                             ! Creation Timestamp
  1366309832,                             ! Version Timestamp
  {55c6190b-a41e-446f-b622-5c5ac6b5e6b3}; ! Name of Object 1

