
OS:Version,
  {15982e82-ccec-48ea-9d2d-27948949576b}, ! Handle
  0.9.3;                                  ! Version Identifier

OS:SizingPeriod:DesignDay,
  {70f9dc22-3066-44ff-a4e9-928aaa80848f}, ! Handle
  Mccook Municipal Ann Htg 99% Condns DB, ! Name
  -13.8,                                  ! Maximum Dry-Bulb Temperature {C}
  0,                                      ! Daily Dry-Bulb Temperature Range {deltaC}
  -13.8,                                  ! Humidity Indicating Conditions at Maximum Dry-Bulb {BasedOnField A3}
  92232,                                  ! Barometric Pressure {Pa}
  3.9,                                    ! Wind Speed {m/s}
  320,                                    ! Wind Direction {deg}
  0,                                      ! Sky Clearness
  0,                                      ! Rain Indicator
  0,                                      ! Snow Indicator
  21,                                     ! Day of Month
  1,                                      ! Month
  WinterDesignDay,                        ! Day Type
  0,                                      ! Daylight Saving Time Indicator
  Wetbulb,                                ! Humidity Indicating Type
  ,                                       ! Humidity Indicating Day Schedule Name
  DefaultMultipliers,                     ! Dry-Bulb Temperature Range Modifier Type
  ,                                       ! Dry-Bulb Temperature Range Modifier Schedule Name
  ASHRAEClearSky;                         ! Solar Model Indicator

OS:ComponentData,
  {7913ebb6-e4a8-4ab5-9a98-7668308023ec}, ! Handle
  Component Data 1,                       ! Name
  {4a628484-fd38-4288-b145-184aa585a637}, ! UUID
  {3c9971ab-e20f-4431-b914-702ee866b776}, ! Version UUID
  1366309143,                             ! Creation Timestamp
  1366309143,                             ! Version Timestamp
  {70f9dc22-3066-44ff-a4e9-928aaa80848f}; ! Name of Object 1

