
OS:Version,
  {ece8c87e-1f3a-46cb-b93f-beb02d2a292c}, ! Handle
  0.9.3;                                  ! Version Identifier

OS:SizingPeriod:DesignDay,
  {14a3e4cd-141d-425e-8b9a-c185741e70f8}, ! Handle
  Martinsburg Eastern Wv Reg Ap Ann Clg .4% Condns WB=>MDB, ! Name
  30.8,                                   ! Maximum Dry-Bulb Temperature {C}
  11.6,                                   ! Daily Dry-Bulb Temperature Range {deltaC}
  25,                                     ! Humidity Indicating Conditions at Maximum Dry-Bulb {BasedOnField A3}
  99394,                                  ! Barometric Pressure {Pa}
  4,                                      ! Wind Speed {m/s}
  270,                                    ! Wind Direction {deg}
  0,                                      ! Sky Clearness
  0,                                      ! Rain Indicator
  0,                                      ! Snow Indicator
  21,                                     ! Day of Month
  7,                                      ! Month
  SummerDesignDay,                        ! Day Type
  0,                                      ! Daylight Saving Time Indicator
  Wetbulb,                                ! Humidity Indicating Type
  ,                                       ! Humidity Indicating Day Schedule Name
  DefaultMultipliers,                     ! Dry-Bulb Temperature Range Modifier Type
  ,                                       ! Dry-Bulb Temperature Range Modifier Schedule Name
  ASHRAETau,                              ! Solar Model Indicator
  ,                                       ! Beam Solar Day Schedule Name
  ,                                       ! Diffuse Solar Day Schedule Name
  0.53,                                   ! ASHRAE Taub {dimensionless}
  1.809;                                  ! ASHRAE Taud {dimensionless}

OS:ComponentData,
  {4144d232-95da-47ae-bf9a-d25e78376364}, ! Handle
  Component Data 1,                       ! Name
  {bc55752d-f523-488d-bce4-b3af03952f4a}, ! UUID
  {ca41e740-4ae1-498e-9758-705b7547ae91}, ! Version UUID
  1366311666,                             ! Creation Timestamp
  1366311666,                             ! Version Timestamp
  {14a3e4cd-141d-425e-8b9a-c185741e70f8}; ! Name of Object 1

