
OS:Version,
  {3241df4c-a1d1-4985-87ec-e4cfb2d465a2}, ! Handle
  0.9.3;                                  ! Version Identifier

OS:SizingPeriod:DesignDay,
  {abe69cbc-6b4d-4356-a616-330e6e2b34eb}, ! Handle
  Vance Afb Ann Clg 1% Condns Enth=>MDB,  ! Name
  32.5,                                   ! Maximum Dry-Bulb Temperature {C}
  12.3,                                   ! Daily Dry-Bulb Temperature Range {deltaC}
  76700,                                  ! Humidity Indicating Conditions at Maximum Dry-Bulb {BasedOnField A3}
  96519,                                  ! Barometric Pressure {Pa}
  5.5,                                    ! Wind Speed {m/s}
  190,                                    ! Wind Direction {deg}
  0,                                      ! Sky Clearness
  0,                                      ! Rain Indicator
  0,                                      ! Snow Indicator
  21,                                     ! Day of Month
  7,                                      ! Month
  SummerDesignDay,                        ! Day Type
  0,                                      ! Daylight Saving Time Indicator
  Enthalpy,                               ! Humidity Indicating Type
  ,                                       ! Humidity Indicating Day Schedule Name
  DefaultMultipliers,                     ! Dry-Bulb Temperature Range Modifier Type
  ,                                       ! Dry-Bulb Temperature Range Modifier Schedule Name
  ASHRAETau,                              ! Solar Model Indicator
  ,                                       ! Beam Solar Day Schedule Name
  ,                                       ! Diffuse Solar Day Schedule Name
  0.425,                                  ! ASHRAE Taub {dimensionless}
  2.194;                                  ! ASHRAE Taud {dimensionless}

OS:ComponentData,
  {b1de7c31-4935-4db1-8017-5c605448670c}, ! Handle
  Component Data 1,                       ! Name
  {2d8c1ab3-d9fa-4368-9968-c5475db6516c}, ! UUID
  {c72ca49a-8d10-4120-b8ce-199bddffddca}, ! Version UUID
  1366309964,                             ! Creation Timestamp
  1366309964,                             ! Version Timestamp
  {abe69cbc-6b4d-4356-a616-330e6e2b34eb}; ! Name of Object 1

