
OS:Version,
  {77bcf362-846e-4285-99ac-205c1b086d51}, ! Handle
  0.9.3;                                  ! Version Identifier

OS:SizingPeriod:DesignDay,
  {11ad9b4c-f6ab-4539-ac62-a546f5b9fa80}, ! Handle
  Orlando Sanford Airport Ann Clg .4% Condns DP=>MDB, ! Name
  27.8,                                   ! Maximum Dry-Bulb Temperature {C}
  9.6,                                    ! Daily Dry-Bulb Temperature Range {deltaC}
  24.1,                                   ! Humidity Indicating Conditions at Maximum Dry-Bulb {BasedOnField A3}
  101121,                                 ! Barometric Pressure {Pa}
  3.7,                                    ! Wind Speed {m/s}
  250,                                    ! Wind Direction {deg}
  0,                                      ! Sky Clearness
  0,                                      ! Rain Indicator
  0,                                      ! Snow Indicator
  21,                                     ! Day of Month
  7,                                      ! Month
  SummerDesignDay,                        ! Day Type
  0,                                      ! Daylight Saving Time Indicator
  Dewpoint,                               ! Humidity Indicating Type
  ,                                       ! Humidity Indicating Day Schedule Name
  DefaultMultipliers,                     ! Dry-Bulb Temperature Range Modifier Type
  ,                                       ! Dry-Bulb Temperature Range Modifier Schedule Name
  ASHRAETau,                              ! Solar Model Indicator
  ,                                       ! Beam Solar Day Schedule Name
  ,                                       ! Diffuse Solar Day Schedule Name
  0.516,                                  ! ASHRAE Taub {dimensionless}
  1.929;                                  ! ASHRAE Taud {dimensionless}

OS:ComponentData,
  {788eddfe-ff1d-40f8-b4b6-3a9203c98ba3}, ! Handle
  Component Data 1,                       ! Name
  {cdf2fae9-ea60-47c7-a60a-915d05ee84bb}, ! UUID
  {83e381b4-7aa4-42d5-a866-05783a98a046}, ! Version UUID
  1366306885,                             ! Creation Timestamp
  1366306885,                             ! Version Timestamp
  {11ad9b4c-f6ab-4539-ac62-a546f5b9fa80}; ! Name of Object 1

