
OS:Version,
  {a5f0ffdf-8f3a-4365-8348-9c5a5319ef60}, ! Handle
  0.9.3;                                  ! Version Identifier

OS:SizingPeriod:DesignDay,
  {cb2373bc-55b3-4811-878f-101869012935}, ! Handle
  SPOKANE Ann Htg Wind 99% Condns WS=>MCDB, ! Name
  1.1,                                    ! Maximum Dry-Bulb Temperature {C}
  0,                                      ! Daily Dry-Bulb Temperature Range {deltaC}
  1.1,                                    ! Humidity Indicating Conditions at Maximum Dry-Bulb {BasedOnField A3}
  92958,                                  ! Barometric Pressure {Pa}
  11.3,                                   ! Wind Speed {m/s}
  20,                                     ! Wind Direction {deg}
  0,                                      ! Sky Clearness
  0,                                      ! Rain Indicator
  0,                                      ! Snow Indicator
  21,                                     ! Day of Month
  12,                                     ! Month
  WinterDesignDay,                        ! Day Type
  0,                                      ! Daylight Saving Time Indicator
  Wetbulb,                                ! Humidity Indicating Type
  ,                                       ! Humidity Indicating Day Schedule Name
  DefaultMultipliers,                     ! Dry-Bulb Temperature Range Modifier Type
  ,                                       ! Dry-Bulb Temperature Range Modifier Schedule Name
  ASHRAEClearSky;                         ! Solar Model Indicator

OS:ComponentData,
  {7c31d0c8-940d-4b3b-bc49-aecb2b6d3154}, ! Handle
  Component Data 1,                       ! Name
  {3d275910-932b-4c5c-b3d5-6cddaab4dcd9}, ! UUID
  {672f9a64-fbfa-4868-bd28-e0acd6b5b3d6}, ! Version UUID
  1366311383,                             ! Creation Timestamp
  1366311383,                             ! Version Timestamp
  {cb2373bc-55b3-4811-878f-101869012935}; ! Name of Object 1

