
OS:Version,
  {0670c692-06f3-453b-8c88-ab852e3f380e}, ! Handle
  0.9.3;                                  ! Version Identifier

OS:SizingPeriod:DesignDay,
  {1ddec2dc-d475-43ed-aee4-19b8db676665}, ! Handle
  Spokane/Fairchild AFB Ann Hum_n 99.6% Condns DP=>MCDB, ! Name
  -14.9,                                  ! Maximum Dry-Bulb Temperature {C}
  0,                                      ! Daily Dry-Bulb Temperature Range {deltaC}
  -20.6,                                  ! Humidity Indicating Conditions at Maximum Dry-Bulb {BasedOnField A3}
  92634,                                  ! Barometric Pressure {Pa}
  3,                                      ! Wind Speed {m/s}
  50,                                     ! Wind Direction {deg}
  0,                                      ! Sky Clearness
  0,                                      ! Rain Indicator
  0,                                      ! Snow Indicator
  21,                                     ! Day of Month
  12,                                     ! Month
  WinterDesignDay,                        ! Day Type
  0,                                      ! Daylight Saving Time Indicator
  Dewpoint,                               ! Humidity Indicating Type
  ,                                       ! Humidity Indicating Day Schedule Name
  DefaultMultipliers,                     ! Dry-Bulb Temperature Range Modifier Type
  ,                                       ! Dry-Bulb Temperature Range Modifier Schedule Name
  ASHRAEClearSky;                         ! Solar Model Indicator

OS:ComponentData,
  {c44cea47-5e09-41ce-93d3-89f3fa8d7734}, ! Handle
  Component Data 1,                       ! Name
  {150ace10-94b0-4426-b172-f8f5198e3e40}, ! UUID
  {86da9f8d-723e-4cfa-865e-68e97f8cae17}, ! Version UUID
  1366311389,                             ! Creation Timestamp
  1366311389,                             ! Version Timestamp
  {1ddec2dc-d475-43ed-aee4-19b8db676665}; ! Name of Object 1

