
OS:Version,
  {1f831793-be69-412f-9fea-a50bb9e0cc6a}, ! Handle
  0.9.3;                                  ! Version Identifier

OS:SizingPeriod:DesignDay,
  {0f19e600-8117-4730-889f-596ba81eaf4b}, ! Handle
  Orlando Intl Arpt Ann Clg 1% Condns DB=>MWB, ! Name
  33.6,                                   ! Maximum Dry-Bulb Temperature {C}
  9.4,                                    ! Daily Dry-Bulb Temperature Range {deltaC}
  24.6,                                   ! Humidity Indicating Conditions at Maximum Dry-Bulb {BasedOnField A3}
  100977,                                 ! Barometric Pressure {Pa}
  3.7,                                    ! Wind Speed {m/s}
  290,                                    ! Wind Direction {deg}
  0,                                      ! Sky Clearness
  0,                                      ! Rain Indicator
  0,                                      ! Snow Indicator
  21,                                     ! Day of Month
  7,                                      ! Month
  SummerDesignDay,                        ! Day Type
  0,                                      ! Daylight Saving Time Indicator
  Wetbulb,                                ! Humidity Indicating Type
  ,                                       ! Humidity Indicating Day Schedule Name
  DefaultMultipliers,                     ! Dry-Bulb Temperature Range Modifier Type
  ,                                       ! Dry-Bulb Temperature Range Modifier Schedule Name
  ASHRAETau,                              ! Solar Model Indicator
  ,                                       ! Beam Solar Day Schedule Name
  ,                                       ! Diffuse Solar Day Schedule Name
  0.514,                                  ! ASHRAE Taub {dimensionless}
  1.928;                                  ! ASHRAE Taud {dimensionless}

OS:ComponentData,
  {29d2fd11-23cf-4461-a8ba-b6513cebcdb4}, ! Handle
  Component Data 1,                       ! Name
  {d35ee16c-546d-437d-82b3-28cce8dd77fd}, ! UUID
  {a9cd473a-955b-44cb-a215-f2a6828d0e98}, ! Version UUID
  1366306895,                             ! Creation Timestamp
  1366306895,                             ! Version Timestamp
  {0f19e600-8117-4730-889f-596ba81eaf4b}; ! Name of Object 1

