
OS:Version,
  {3e5c7ff7-d6db-43e0-ab8a-1872360e4380}, ! Handle
  0.9.3;                                  ! Version Identifier

OS:SizingPeriod:DesignDay,
  {af2545a4-4a3e-4507-a36f-bc9972fe6d4f}, ! Handle
  Montgomery Ann Clg 2% Condns DB=>MWB,   ! Name
  33.4,                                   ! Maximum Dry-Bulb Temperature {C}
  10.9,                                   ! Daily Dry-Bulb Temperature Range {deltaC}
  24.4,                                   ! Humidity Indicating Conditions at Maximum Dry-Bulb {BasedOnField A3}
  100582,                                 ! Barometric Pressure {Pa}
  3.1,                                    ! Wind Speed {m/s}
  300,                                    ! Wind Direction {deg}
  0,                                      ! Sky Clearness
  0,                                      ! Rain Indicator
  0,                                      ! Snow Indicator
  21,                                     ! Day of Month
  7,                                      ! Month
  SummerDesignDay,                        ! Day Type
  0,                                      ! Daylight Saving Time Indicator
  Wetbulb,                                ! Humidity Indicating Type
  ,                                       ! Humidity Indicating Day Schedule Name
  DefaultMultipliers,                     ! Dry-Bulb Temperature Range Modifier Type
  ,                                       ! Dry-Bulb Temperature Range Modifier Schedule Name
  ASHRAETau,                              ! Solar Model Indicator
  ,                                       ! Beam Solar Day Schedule Name
  ,                                       ! Diffuse Solar Day Schedule Name
  0.573,                                  ! ASHRAE Taub {dimensionless}
  1.761;                                  ! ASHRAE Taud {dimensionless}

OS:ComponentData,
  {9f1d4171-3a1c-4842-8ac9-c33fe200a0d4}, ! Handle
  Component Data 1,                       ! Name
  {dc35d400-17e1-4137-a965-ecb88cb84a95}, ! UUID
  {33ad289d-8797-4e14-8cda-a96867ce4d60}, ! Version UUID
  1366305877,                             ! Creation Timestamp
  1366305877,                             ! Version Timestamp
  {af2545a4-4a3e-4507-a36f-bc9972fe6d4f}; ! Name of Object 1

