
OS:Version,
  {052bf169-12d4-4374-a127-86c1ed3c43ba}, ! Handle
  0.9.3;                                  ! Version Identifier

OS:SizingPeriod:DesignDay,
  {6ff356aa-e124-4fc3-be81-41ade5a0ea60}, ! Handle
  Orlando Ann Htg 99% Condns DB,          ! Name
  6.8,                                    ! Maximum Dry-Bulb Temperature {C}
  0,                                      ! Daily Dry-Bulb Temperature Range {deltaC}
  6.8,                                    ! Humidity Indicating Conditions at Maximum Dry-Bulb {BasedOnField A3}
  100941,                                 ! Barometric Pressure {Pa}
  3.5,                                    ! Wind Speed {m/s}
  310,                                    ! Wind Direction {deg}
  0,                                      ! Sky Clearness
  0,                                      ! Rain Indicator
  0,                                      ! Snow Indicator
  21,                                     ! Day of Month
  12,                                     ! Month
  WinterDesignDay,                        ! Day Type
  0,                                      ! Daylight Saving Time Indicator
  Wetbulb,                                ! Humidity Indicating Type
  ,                                       ! Humidity Indicating Day Schedule Name
  DefaultMultipliers,                     ! Dry-Bulb Temperature Range Modifier Type
  ,                                       ! Dry-Bulb Temperature Range Modifier Schedule Name
  ASHRAEClearSky;                         ! Solar Model Indicator

OS:ComponentData,
  {50e88eaa-bf70-4bc8-8f67-a7cb82d37ee2}, ! Handle
  Component Data 1,                       ! Name
  {f33065ec-e836-44d4-9ac4-aa33bc30ece5}, ! UUID
  {bb2ededd-8934-4a9f-932c-404346f4a3ac}, ! Version UUID
  1366306887,                             ! Creation Timestamp
  1366306887,                             ! Version Timestamp
  {6ff356aa-e124-4fc3-be81-41ade5a0ea60}; ! Name of Object 1

