
OS:Version,
  {c71ced62-9aa7-423f-b274-1113071c6f4b}, ! Handle
  0.9.3;                                  ! Version Identifier

OS:SizingPeriod:DesignDay,
  {22f622a0-e049-482d-a39f-a57ba827ad52}, ! Handle
  Orlando Executive Ap Ann Clg 1% Condns DB=>MWB, ! Name
  33.7,                                   ! Maximum Dry-Bulb Temperature {C}
  8.8,                                    ! Daily Dry-Bulb Temperature Range {deltaC}
  24.4,                                   ! Humidity Indicating Conditions at Maximum Dry-Bulb {BasedOnField A3}
  100929,                                 ! Barometric Pressure {Pa}
  3.7,                                    ! Wind Speed {m/s}
  270,                                    ! Wind Direction {deg}
  0,                                      ! Sky Clearness
  0,                                      ! Rain Indicator
  0,                                      ! Snow Indicator
  21,                                     ! Day of Month
  7,                                      ! Month
  SummerDesignDay,                        ! Day Type
  0,                                      ! Daylight Saving Time Indicator
  Wetbulb,                                ! Humidity Indicating Type
  ,                                       ! Humidity Indicating Day Schedule Name
  DefaultMultipliers,                     ! Dry-Bulb Temperature Range Modifier Type
  ,                                       ! Dry-Bulb Temperature Range Modifier Schedule Name
  ASHRAETau,                              ! Solar Model Indicator
  ,                                       ! Beam Solar Day Schedule Name
  ,                                       ! Diffuse Solar Day Schedule Name
  0.516,                                  ! ASHRAE Taub {dimensionless}
  1.924;                                  ! ASHRAE Taud {dimensionless}

OS:ComponentData,
  {0d0e8c08-a668-49c3-aa3f-e3dbe40e2a11}, ! Handle
  Component Data 1,                       ! Name
  {9add406d-793e-42d4-8683-e9f0f4879f8f}, ! UUID
  {bb9cafaa-aa3e-444a-ae9e-add20cd30ed1}, ! Version UUID
  1366306892,                             ! Creation Timestamp
  1366306892,                             ! Version Timestamp
  {22f622a0-e049-482d-a39f-a57ba827ad52}; ! Name of Object 1

