
OS:Version,
  {1b5f3b81-aadc-480a-9454-ed7de2109d55}, ! Handle
  0.9.3;                                  ! Version Identifier

OS:SizingPeriod:DesignDay,
  {32ddbd0c-aee4-46a7-921f-b26f191456c0}, ! Handle
  Miles City Ann Clg 1% Condns WB=>MDB,   ! Name
  30.6,                                   ! Maximum Dry-Bulb Temperature {C}
  14.9,                                   ! Daily Dry-Bulb Temperature Range {deltaC}
  20,                                     ! Humidity Indicating Conditions at Maximum Dry-Bulb {BasedOnField A3}
  92065,                                  ! Barometric Pressure {Pa}
  4.7,                                    ! Wind Speed {m/s}
  140,                                    ! Wind Direction {deg}
  0,                                      ! Sky Clearness
  0,                                      ! Rain Indicator
  0,                                      ! Snow Indicator
  21,                                     ! Day of Month
  7,                                      ! Month
  SummerDesignDay,                        ! Day Type
  0,                                      ! Daylight Saving Time Indicator
  Wetbulb,                                ! Humidity Indicating Type
  ,                                       ! Humidity Indicating Day Schedule Name
  DefaultMultipliers,                     ! Dry-Bulb Temperature Range Modifier Type
  ,                                       ! Dry-Bulb Temperature Range Modifier Schedule Name
  ASHRAETau,                              ! Solar Model Indicator
  ,                                       ! Beam Solar Day Schedule Name
  ,                                       ! Diffuse Solar Day Schedule Name
  0.418,                                  ! ASHRAE Taub {dimensionless}
  2.061;                                  ! ASHRAE Taud {dimensionless}

OS:ComponentData,
  {a46c6018-a4dc-4512-b179-e1174a1e73d9}, ! Handle
  Component Data 1,                       ! Name
  {3e4deded-98ab-4cce-b0f5-011bbda432fd}, ! UUID
  {56270e58-991a-4b37-be9d-c50262ae5141}, ! Version UUID
  1366308832,                             ! Creation Timestamp
  1366308832,                             ! Version Timestamp
  {32ddbd0c-aee4-46a7-921f-b26f191456c0}; ! Name of Object 1

