
OS:Version,
  {df53aea3-b561-415f-8a31-773ab36cdc25}, ! Handle
  0.9.3;                                  ! Version Identifier

OS:SizingPeriod:DesignDay,
  {fbcb707a-6b31-48d3-a1f2-6b6f04046fd2}, ! Handle
  Whiteman Afb Ann Htg Wind 99.6% Condns WS=>MCDB, ! Name
  2.1,                                    ! Maximum Dry-Bulb Temperature {C}
  0,                                      ! Daily Dry-Bulb Temperature Range {deltaC}
  2.1,                                    ! Humidity Indicating Conditions at Maximum Dry-Bulb {BasedOnField A3}
  98299,                                  ! Barometric Pressure {Pa}
  12.3,                                   ! Wind Speed {m/s}
  350,                                    ! Wind Direction {deg}
  0,                                      ! Sky Clearness
  0,                                      ! Rain Indicator
  0,                                      ! Snow Indicator
  21,                                     ! Day of Month
  1,                                      ! Month
  WinterDesignDay,                        ! Day Type
  0,                                      ! Daylight Saving Time Indicator
  Wetbulb,                                ! Humidity Indicating Type
  ,                                       ! Humidity Indicating Day Schedule Name
  DefaultMultipliers,                     ! Dry-Bulb Temperature Range Modifier Type
  ,                                       ! Dry-Bulb Temperature Range Modifier Schedule Name
  ASHRAEClearSky;                         ! Solar Model Indicator

OS:ComponentData,
  {694868ab-4fcd-48b4-9a34-0148ccea997d}, ! Handle
  Component Data 1,                       ! Name
  {caa090a3-97c3-4049-965f-caf069d15576}, ! UUID
  {c9b6c8d5-dae4-4e5a-bfce-4b6623d19c04}, ! Version UUID
  1366308600,                             ! Creation Timestamp
  1366308600,                             ! Version Timestamp
  {fbcb707a-6b31-48d3-a1f2-6b6f04046fd2}; ! Name of Object 1

