
OS:Version,
  {7ffecc60-1360-4345-8ee4-7e26640add90}, ! Handle
  0.9.3;                                  ! Version Identifier

OS:SizingPeriod:DesignDay,
  {5e1ebc83-922d-49eb-9462-f3082a862aec}, ! Handle
  SALT_LAKE Ann Clg 1% Condns DP=>MDB,    ! Name
  23.2,                                   ! Maximum Dry-Bulb Temperature {C}
  14.4,                                   ! Daily Dry-Bulb Temperature Range {deltaC}
  15,                                     ! Humidity Indicating Conditions at Maximum Dry-Bulb {BasedOnField A3}
  86779,                                  ! Barometric Pressure {Pa}
  5.1,                                    ! Wind Speed {m/s}
  340,                                    ! Wind Direction {deg}
  0,                                      ! Sky Clearness
  0,                                      ! Rain Indicator
  0,                                      ! Snow Indicator
  21,                                     ! Day of Month
  7,                                      ! Month
  SummerDesignDay,                        ! Day Type
  0,                                      ! Daylight Saving Time Indicator
  Dewpoint,                               ! Humidity Indicating Type
  ,                                       ! Humidity Indicating Day Schedule Name
  DefaultMultipliers,                     ! Dry-Bulb Temperature Range Modifier Type
  ,                                       ! Dry-Bulb Temperature Range Modifier Schedule Name
  ASHRAETau,                              ! Solar Model Indicator
  ,                                       ! Beam Solar Day Schedule Name
  ,                                       ! Diffuse Solar Day Schedule Name
  0.44,                                   ! ASHRAE Taub {dimensionless}
  1.968;                                  ! ASHRAE Taud {dimensionless}

OS:ComponentData,
  {e189b911-9000-4099-a0fd-25339d2afecf}, ! Handle
  Component Data 1,                       ! Name
  {43bed1c5-ce7b-46cf-b95f-b9f7f2c2c452}, ! UUID
  {a435ef57-48de-4a61-8218-e2a5087ae150}, ! Version UUID
  1366310989,                             ! Creation Timestamp
  1366310989,                             ! Version Timestamp
  {5e1ebc83-922d-49eb-9462-f3082a862aec}; ! Name of Object 1

