
OS:Version,
  {2fb213b1-e9ee-4c3b-89e2-3fa3ce44a213}, ! Handle
  0.9.3;                                  ! Version Identifier

OS:SizingPeriod:DesignDay,
  {282f258f-92cf-4843-9c26-b538ae0cbb9b}, ! Handle
  Togiac Village Awos Ann Clg .4% Condns DP=>MDB, ! Name
  16.2,                                   ! Maximum Dry-Bulb Temperature {C}
  6.1,                                    ! Daily Dry-Bulb Temperature Range {deltaC}
  13.2,                                   ! Humidity Indicating Conditions at Maximum Dry-Bulb {BasedOnField A3}
  101253,                                 ! Barometric Pressure {Pa}
  5.4,                                    ! Wind Speed {m/s}
  320,                                    ! Wind Direction {deg}
  0,                                      ! Sky Clearness
  0,                                      ! Rain Indicator
  0,                                      ! Snow Indicator
  21,                                     ! Day of Month
  7,                                      ! Month
  SummerDesignDay,                        ! Day Type
  0,                                      ! Daylight Saving Time Indicator
  Dewpoint,                               ! Humidity Indicating Type
  ,                                       ! Humidity Indicating Day Schedule Name
  DefaultMultipliers,                     ! Dry-Bulb Temperature Range Modifier Type
  ,                                       ! Dry-Bulb Temperature Range Modifier Schedule Name
  ASHRAETau,                              ! Solar Model Indicator
  ,                                       ! Beam Solar Day Schedule Name
  ,                                       ! Diffuse Solar Day Schedule Name
  0.388,                                  ! ASHRAE Taub {dimensionless}
  2.239;                                  ! ASHRAE Taud {dimensionless}

OS:ComponentData,
  {9d46fc71-4480-4c17-bfe8-0c745acebd00}, ! Handle
  Component Data 1,                       ! Name
  {0774c8f6-9444-48d1-a0c5-8e26af08dba0}, ! UUID
  {738ec6e9-3b21-41c3-b7d3-ecc4e52ab44b}, ! Version UUID
  1366305594,                             ! Creation Timestamp
  1366305594,                             ! Version Timestamp
  {282f258f-92cf-4843-9c26-b538ae0cbb9b}; ! Name of Object 1

