
OS:Version,
  {0695844a-3a74-49ea-b3af-19b3ae97da25}, ! Handle
  0.9.3;                                  ! Version Identifier

OS:SizingPeriod:DesignDay,
  {4d8825db-e6ca-4e32-8a39-3e4a574f7dbd}, ! Handle
  St Paul Island Arpt Ann Clg 2% Condns Enth=>MDB, ! Name
  10.7,                                   ! Maximum Dry-Bulb Temperature {C}
  3.1,                                    ! Daily Dry-Bulb Temperature Range {deltaC}
  29700,                                  ! Humidity Indicating Conditions at Maximum Dry-Bulb {BasedOnField A3}
  101241,                                 ! Barometric Pressure {Pa}
  6,                                      ! Wind Speed {m/s}
  350,                                    ! Wind Direction {deg}
  0,                                      ! Sky Clearness
  0,                                      ! Rain Indicator
  0,                                      ! Snow Indicator
  21,                                     ! Day of Month
  8,                                      ! Month
  SummerDesignDay,                        ! Day Type
  0,                                      ! Daylight Saving Time Indicator
  Enthalpy,                               ! Humidity Indicating Type
  ,                                       ! Humidity Indicating Day Schedule Name
  DefaultMultipliers,                     ! Dry-Bulb Temperature Range Modifier Type
  ,                                       ! Dry-Bulb Temperature Range Modifier Schedule Name
  ASHRAETau,                              ! Solar Model Indicator
  ,                                       ! Beam Solar Day Schedule Name
  ,                                       ! Diffuse Solar Day Schedule Name
  0.39,                                   ! ASHRAE Taub {dimensionless}
  2.227;                                  ! ASHRAE Taud {dimensionless}

OS:ComponentData,
  {51e93be6-8ad2-412b-8c7a-fb5974de83f7}, ! Handle
  Component Data 1,                       ! Name
  {a318a86f-1692-439b-b5e7-f9de2c6cc330}, ! UUID
  {e7a291c0-0080-473c-9508-4ede9cbc0d59}, ! Version UUID
  1366305578,                             ! Creation Timestamp
  1366305578,                             ! Version Timestamp
  {4d8825db-e6ca-4e32-8a39-3e4a574f7dbd}; ! Name of Object 1

