
OS:Version,
  {83dff0be-bc6b-45bf-ab6e-b2930c3337a3}, ! Handle
  0.9.3;                                  ! Version Identifier

OS:SizingPeriod:DesignDay,
  {0a252ea0-ce5c-4983-a2f4-53a96171c18a}, ! Handle
  Macon Middle Ga Regional Ap Ann Clg .4% Condns WB=>MDB, ! Name
  32.5,                                   ! Maximum Dry-Bulb Temperature {C}
  11.1,                                   ! Daily Dry-Bulb Temperature Range {deltaC}
  26.2,                                   ! Humidity Indicating Conditions at Maximum Dry-Bulb {BasedOnField A3}
  100034,                                 ! Barometric Pressure {Pa}
  3.6,                                    ! Wind Speed {m/s}
  300,                                    ! Wind Direction {deg}
  0,                                      ! Sky Clearness
  0,                                      ! Rain Indicator
  0,                                      ! Snow Indicator
  21,                                     ! Day of Month
  7,                                      ! Month
  SummerDesignDay,                        ! Day Type
  0,                                      ! Daylight Saving Time Indicator
  Wetbulb,                                ! Humidity Indicating Type
  ,                                       ! Humidity Indicating Day Schedule Name
  DefaultMultipliers,                     ! Dry-Bulb Temperature Range Modifier Type
  ,                                       ! Dry-Bulb Temperature Range Modifier Schedule Name
  ASHRAETau,                              ! Solar Model Indicator
  ,                                       ! Beam Solar Day Schedule Name
  ,                                       ! Diffuse Solar Day Schedule Name
  0.549,                                  ! ASHRAE Taub {dimensionless}
  1.812;                                  ! ASHRAE Taud {dimensionless}

OS:ComponentData,
  {0a3fecc0-a106-44aa-982d-fac49c2fb49a}, ! Handle
  Component Data 1,                       ! Name
  {f0cdc562-26b0-44d7-8e4f-9ca98860a988}, ! UUID
  {4dd30c2a-ee54-49ad-9c52-3c5cd73ceba3}, ! Version UUID
  1366307024,                             ! Creation Timestamp
  1366307024,                             ! Version Timestamp
  {0a252ea0-ce5c-4983-a2f4-53a96171c18a}; ! Name of Object 1

