
OS:Version,
  {9e1d4604-8764-4c52-af87-7f89fca87d75}, ! Handle
  0.9.3;                                  ! Version Identifier

OS:SizingPeriod:DesignDay,
  {86852741-acbf-43ce-88c8-9200a51e7a78}, ! Handle
  Youngstown Regional Airport Ann Htg 99.6% Condns DB, ! Name
  -16.8,                                  ! Maximum Dry-Bulb Temperature {C}
  0,                                      ! Daily Dry-Bulb Temperature Range {deltaC}
  -16.8,                                  ! Humidity Indicating Conditions at Maximum Dry-Bulb {BasedOnField A3}
  97074,                                  ! Barometric Pressure {Pa}
  4,                                      ! Wind Speed {m/s}
  260,                                    ! Wind Direction {deg}
  0,                                      ! Sky Clearness
  0,                                      ! Rain Indicator
  0,                                      ! Snow Indicator
  21,                                     ! Day of Month
  1,                                      ! Month
  WinterDesignDay,                        ! Day Type
  0,                                      ! Daylight Saving Time Indicator
  Wetbulb,                                ! Humidity Indicating Type
  ,                                       ! Humidity Indicating Day Schedule Name
  DefaultMultipliers,                     ! Dry-Bulb Temperature Range Modifier Type
  ,                                       ! Dry-Bulb Temperature Range Modifier Schedule Name
  ASHRAEClearSky;                         ! Solar Model Indicator

OS:ComponentData,
  {283d16b6-d1d1-420b-9510-4770e4c32178}, ! Handle
  Component Data 1,                       ! Name
  {a4a23878-4ff7-441d-8eed-8e34d22ade9d}, ! UUID
  {e2c527b6-ac6c-426e-a2ad-12c6d3025ad9}, ! Version UUID
  1366309868,                             ! Creation Timestamp
  1366309868,                             ! Version Timestamp
  {86852741-acbf-43ce-88c8-9200a51e7a78}; ! Name of Object 1

