
OS:Version,
  {5817d722-b267-4e7a-9387-aae15d19cb49}, ! Handle
  0.9.3;                                  ! Version Identifier

OS:SizingPeriod:DesignDay,
  {20e69827-719a-4446-8445-bd3dc7ba1df5}, ! Handle
  NORFOLK Ann Clg .4% Condns DB=>MWB,     ! Name
  34.3,                                   ! Maximum Dry-Bulb Temperature {C}
  8.1,                                    ! Daily Dry-Bulb Temperature Range {deltaC}
  24.8,                                   ! Humidity Indicating Conditions at Maximum Dry-Bulb {BasedOnField A3}
  101217,                                 ! Barometric Pressure {Pa}
  5,                                      ! Wind Speed {m/s}
  240,                                    ! Wind Direction {deg}
  0,                                      ! Sky Clearness
  0,                                      ! Rain Indicator
  0,                                      ! Snow Indicator
  21,                                     ! Day of Month
  7,                                      ! Month
  SummerDesignDay,                        ! Day Type
  0,                                      ! Daylight Saving Time Indicator
  Wetbulb,                                ! Humidity Indicating Type
  ,                                       ! Humidity Indicating Day Schedule Name
  DefaultMultipliers,                     ! Dry-Bulb Temperature Range Modifier Type
  ,                                       ! Dry-Bulb Temperature Range Modifier Schedule Name
  ASHRAETau,                              ! Solar Model Indicator
  ,                                       ! Beam Solar Day Schedule Name
  ,                                       ! Diffuse Solar Day Schedule Name
  0.59,                                   ! ASHRAE Taub {dimensionless}
  1.703;                                  ! ASHRAE Taud {dimensionless}

OS:ComponentData,
  {4b78f5d1-dba0-4e6e-81be-4d0b2c75ce7c}, ! Handle
  Component Data 1,                       ! Name
  {bce4a36d-6fd2-40f9-82c1-410aeb50449f}, ! UUID
  {6926a088-c19d-4817-b21e-8b612968f6ac}, ! Version UUID
  1366311123,                             ! Creation Timestamp
  1366311123,                             ! Version Timestamp
  {20e69827-719a-4446-8445-bd3dc7ba1df5}; ! Name of Object 1

