
OS:Version,
  {7d1c3b02-566f-46b7-b98c-626ec37f9dfc}, ! Handle
  0.9.3;                                  ! Version Identifier

OS:SizingPeriod:DesignDay,
  {35c3b38c-1f5c-41d0-a42c-66d9bbd016d2}, ! Handle
  Mountain Home Afb Ann Clg .4% Condns DP=>MDB, ! Name
  21.9,                                   ! Maximum Dry-Bulb Temperature {C}
  18.4,                                   ! Daily Dry-Bulb Temperature Range {deltaC}
  14.1,                                   ! Humidity Indicating Conditions at Maximum Dry-Bulb {BasedOnField A3}
  90838,                                  ! Barometric Pressure {Pa}
  3.4,                                    ! Wind Speed {m/s}
  330,                                    ! Wind Direction {deg}
  0,                                      ! Sky Clearness
  0,                                      ! Rain Indicator
  0,                                      ! Snow Indicator
  21,                                     ! Day of Month
  7,                                      ! Month
  SummerDesignDay,                        ! Day Type
  0,                                      ! Daylight Saving Time Indicator
  Dewpoint,                               ! Humidity Indicating Type
  ,                                       ! Humidity Indicating Day Schedule Name
  DefaultMultipliers,                     ! Dry-Bulb Temperature Range Modifier Type
  ,                                       ! Dry-Bulb Temperature Range Modifier Schedule Name
  ASHRAETau,                              ! Solar Model Indicator
  ,                                       ! Beam Solar Day Schedule Name
  ,                                       ! Diffuse Solar Day Schedule Name
  0.425,                                  ! ASHRAE Taub {dimensionless}
  2.01;                                   ! ASHRAE Taud {dimensionless}

OS:ComponentData,
  {6ea74396-5d10-48e4-ac22-5e99f83bc600}, ! Handle
  Component Data 1,                       ! Name
  {a2e806f3-8f20-4988-bc2a-2727b98e74c9}, ! UUID
  {bdb5a1a3-4968-4948-b885-2f72099d4e0e}, ! Version UUID
  1366307296,                             ! Creation Timestamp
  1366307296,                             ! Version Timestamp
  {35c3b38c-1f5c-41d0-a42c-66d9bbd016d2}; ! Name of Object 1

