
OS:Version,
  {f9565246-9303-40dc-b08c-ca161d2bfda3}, ! Handle
  0.9.3;                                  ! Version Identifier

OS:SizingPeriod:DesignDay,
  {6f5e9ac9-b54e-42b1-9d9c-44ba4abf4206}, ! Handle
  OMAHA Ann Clg 2% Condns DP=>MDB,        ! Name
  27.8,                                   ! Maximum Dry-Bulb Temperature {C}
  11,                                     ! Daily Dry-Bulb Temperature Range {deltaC}
  22.6,                                   ! Humidity Indicating Conditions at Maximum Dry-Bulb {BasedOnField A3}
  96565,                                  ! Barometric Pressure {Pa}
  6.1,                                    ! Wind Speed {m/s}
  180,                                    ! Wind Direction {deg}
  0,                                      ! Sky Clearness
  0,                                      ! Rain Indicator
  0,                                      ! Snow Indicator
  21,                                     ! Day of Month
  7,                                      ! Month
  SummerDesignDay,                        ! Day Type
  0,                                      ! Daylight Saving Time Indicator
  Dewpoint,                               ! Humidity Indicating Type
  ,                                       ! Humidity Indicating Day Schedule Name
  DefaultMultipliers,                     ! Dry-Bulb Temperature Range Modifier Type
  ,                                       ! Dry-Bulb Temperature Range Modifier Schedule Name
  ASHRAETau,                              ! Solar Model Indicator
  ,                                       ! Beam Solar Day Schedule Name
  ,                                       ! Diffuse Solar Day Schedule Name
  0.421,                                  ! ASHRAE Taub {dimensionless}
  2.196;                                  ! ASHRAE Taud {dimensionless}

OS:ComponentData,
  {c47b722b-b719-40fa-a10b-961572044c24}, ! Handle
  Component Data 1,                       ! Name
  {c30e92ca-26ce-4604-8173-bbb9da63f784}, ! UUID
  {8c83be45-56b0-432a-8f74-59153c107109}, ! Version UUID
  1366309178,                             ! Creation Timestamp
  1366309178,                             ! Version Timestamp
  {6f5e9ac9-b54e-42b1-9d9c-44ba4abf4206}; ! Name of Object 1

