
OS:Version,
  {70994985-fc7f-46f9-a186-5eeb233dd5c1}, ! Handle
  0.9.3;                                  ! Version Identifier

OS:SizingPeriod:DesignDay,
  {83498067-012a-4f6c-9f95-a96412c691ea}, ! Handle
  Sioux Falls Foss Field Ann Htg Wind 99.6% Condns WS=>MCDB, ! Name
  -10.9,                                  ! Maximum Dry-Bulb Temperature {C}
  0,                                      ! Daily Dry-Bulb Temperature Range {deltaC}
  -10.9,                                  ! Humidity Indicating Conditions at Maximum Dry-Bulb {BasedOnField A3}
  96230,                                  ! Barometric Pressure {Pa}
  14.9,                                   ! Wind Speed {m/s}
  300,                                    ! Wind Direction {deg}
  0,                                      ! Sky Clearness
  0,                                      ! Rain Indicator
  0,                                      ! Snow Indicator
  21,                                     ! Day of Month
  1,                                      ! Month
  WinterDesignDay,                        ! Day Type
  0,                                      ! Daylight Saving Time Indicator
  Wetbulb,                                ! Humidity Indicating Type
  ,                                       ! Humidity Indicating Day Schedule Name
  DefaultMultipliers,                     ! Dry-Bulb Temperature Range Modifier Type
  ,                                       ! Dry-Bulb Temperature Range Modifier Schedule Name
  ASHRAEClearSky;                         ! Solar Model Indicator

OS:ComponentData,
  {797ed227-adc4-42b6-b2ff-67dc1f5a3514}, ! Handle
  Component Data 1,                       ! Name
  {152e0244-2f40-4726-a713-759c4aefb7fa}, ! UUID
  {fd12ae1e-1cc1-4ec0-b9e4-d25f9c01019e}, ! Version UUID
  1366310458,                             ! Creation Timestamp
  1366310458,                             ! Version Timestamp
  {83498067-012a-4f6c-9f95-a96412c691ea}; ! Name of Object 1

