
OS:Version,
  {4a30d297-7fc0-47c7-a6ee-532691d7adf4}, ! Handle
  0.9.3;                                  ! Version Identifier

OS:SizingPeriod:DesignDay,
  {1cea767b-0d47-4dfd-8af1-54da1e5d8861}, ! Handle
  MIDLAND Ann Htg 99.6% Condns DB,        ! Name
  -7.6,                                   ! Maximum Dry-Bulb Temperature {C}
  0,                                      ! Daily Dry-Bulb Temperature Range {deltaC}
  -7.6,                                   ! Humidity Indicating Conditions at Maximum Dry-Bulb {BasedOnField A3}
  91290,                                  ! Barometric Pressure {Pa}
  4.1,                                    ! Wind Speed {m/s}
  40,                                     ! Wind Direction {deg}
  0,                                      ! Sky Clearness
  0,                                      ! Rain Indicator
  0,                                      ! Snow Indicator
  21,                                     ! Day of Month
  12,                                     ! Month
  WinterDesignDay,                        ! Day Type
  0,                                      ! Daylight Saving Time Indicator
  Wetbulb,                                ! Humidity Indicating Type
  ,                                       ! Humidity Indicating Day Schedule Name
  DefaultMultipliers,                     ! Dry-Bulb Temperature Range Modifier Type
  ,                                       ! Dry-Bulb Temperature Range Modifier Schedule Name
  ASHRAEClearSky;                         ! Solar Model Indicator

OS:ComponentData,
  {ae214b6e-c467-468d-a880-393f77bdf9f2}, ! Handle
  Component Data 1,                       ! Name
  {d5a5e1a8-518d-4b53-b732-3591433b3b06}, ! UUID
  {407dffac-04cb-46fc-a7b9-2b243d93a4b0}, ! Version UUID
  1366310826,                             ! Creation Timestamp
  1366310826,                             ! Version Timestamp
  {1cea767b-0d47-4dfd-8af1-54da1e5d8861}; ! Name of Object 1

