
OS:Version,
  {255c336e-45f8-43ff-b445-6e970a7ae49d}, ! Handle
  0.9.3;                                  ! Version Identifier

OS:SizingPeriod:DesignDay,
  {95da6b2b-1737-41d9-8176-9b001e13bbd3}, ! Handle
  Shemya Afb Ann Htg 99.6% Condns DB,     ! Name
  -5.6,                                   ! Maximum Dry-Bulb Temperature {C}
  0,                                      ! Daily Dry-Bulb Temperature Range {deltaC}
  -5.6,                                   ! Humidity Indicating Conditions at Maximum Dry-Bulb {BasedOnField A3}
  100953,                                 ! Barometric Pressure {Pa}
  6.7,                                    ! Wind Speed {m/s}
  290,                                    ! Wind Direction {deg}
  0,                                      ! Sky Clearness
  0,                                      ! Rain Indicator
  0,                                      ! Snow Indicator
  21,                                     ! Day of Month
  1,                                      ! Month
  WinterDesignDay,                        ! Day Type
  0,                                      ! Daylight Saving Time Indicator
  Wetbulb,                                ! Humidity Indicating Type
  ,                                       ! Humidity Indicating Day Schedule Name
  DefaultMultipliers,                     ! Dry-Bulb Temperature Range Modifier Type
  ,                                       ! Dry-Bulb Temperature Range Modifier Schedule Name
  ASHRAEClearSky;                         ! Solar Model Indicator

OS:ComponentData,
  {d418ad0f-85e6-496f-8ab1-6d5f659e3500}, ! Handle
  Component Data 1,                       ! Name
  {241d2eaa-6f87-455e-a951-a2bf29917968}, ! UUID
  {c8b5f53e-5313-4378-b2f1-545eb5dc9258}, ! Version UUID
  1366305541,                             ! Creation Timestamp
  1366305541,                             ! Version Timestamp
  {95da6b2b-1737-41d9-8176-9b001e13bbd3}; ! Name of Object 1

