
OS:Version,
  {54167725-0a97-4895-8e15-0d464b290453}, ! Handle
  0.9.3;                                  ! Version Identifier

OS:SizingPeriod:DesignDay,
  {3c46531c-a3d4-4a2d-b878-a6b0a3f8cf0a}, ! Handle
  Mount Vernon  Awos Ann Htg Wind 99% Condns WS=>MCDB, ! Name
  10.4,                                   ! Maximum Dry-Bulb Temperature {C}
  0,                                      ! Daily Dry-Bulb Temperature Range {deltaC}
  10.4,                                   ! Humidity Indicating Conditions at Maximum Dry-Bulb {BasedOnField A3}
  99583,                                  ! Barometric Pressure {Pa}
  9.3,                                    ! Wind Speed {m/s}
  270,                                    ! Wind Direction {deg}
  0,                                      ! Sky Clearness
  0,                                      ! Rain Indicator
  0,                                      ! Snow Indicator
  21,                                     ! Day of Month
  1,                                      ! Month
  WinterDesignDay,                        ! Day Type
  0,                                      ! Daylight Saving Time Indicator
  Wetbulb,                                ! Humidity Indicating Type
  ,                                       ! Humidity Indicating Day Schedule Name
  DefaultMultipliers,                     ! Dry-Bulb Temperature Range Modifier Type
  ,                                       ! Dry-Bulb Temperature Range Modifier Schedule Name
  ASHRAEClearSky;                         ! Solar Model Indicator

OS:ComponentData,
  {e67c4868-14d6-4ca6-a6d3-fda2223d6ebd}, ! Handle
  Component Data 1,                       ! Name
  {c38852b8-3855-4fd7-956a-704f68fdea48}, ! UUID
  {2ed12d41-e302-4fa8-830c-35814c995a62}, ! Version UUID
  1366307375,                             ! Creation Timestamp
  1366307375,                             ! Version Timestamp
  {3c46531c-a3d4-4a2d-b878-a6b0a3f8cf0a}; ! Name of Object 1

