
OS:Version,
  {8bac418a-955d-4c9a-8100-8629d29d5087}, ! Handle
  0.9.3;                                  ! Version Identifier

OS:SizingPeriod:DesignDay,
  {d3cba81e-b081-4356-819a-661071b128a7}, ! Handle
  PROVIDENCE Ann Htg Wind 99% Condns WS=>MCDB, ! Name
  1.6,                                    ! Maximum Dry-Bulb Temperature {C}
  0,                                      ! Daily Dry-Bulb Temperature Range {deltaC}
  1.6,                                    ! Humidity Indicating Conditions at Maximum Dry-Bulb {BasedOnField A3}
  101097,                                 ! Barometric Pressure {Pa}
  11.4,                                   ! Wind Speed {m/s}
  330,                                    ! Wind Direction {deg}
  0,                                      ! Sky Clearness
  0,                                      ! Rain Indicator
  0,                                      ! Snow Indicator
  21,                                     ! Day of Month
  1,                                      ! Month
  WinterDesignDay,                        ! Day Type
  0,                                      ! Daylight Saving Time Indicator
  Wetbulb,                                ! Humidity Indicating Type
  ,                                       ! Humidity Indicating Day Schedule Name
  DefaultMultipliers,                     ! Dry-Bulb Temperature Range Modifier Type
  ,                                       ! Dry-Bulb Temperature Range Modifier Schedule Name
  ASHRAEClearSky;                         ! Solar Model Indicator

OS:ComponentData,
  {f4d9806c-281b-4522-8d4e-3acf6884f127}, ! Handle
  Component Data 1,                       ! Name
  {fe00987c-8042-4e4c-9835-35f20938f1d9}, ! UUID
  {aa29a566-b1e3-4f8e-a0e1-23e2fbaab935}, ! Version UUID
  1366310307,                             ! Creation Timestamp
  1366310307,                             ! Version Timestamp
  {d3cba81e-b081-4356-819a-661071b128a7}; ! Name of Object 1

