
OS:Version,
  {d4867551-35cf-43be-96ae-bf48bfdab6a8}, ! Handle
  0.9.3;                                  ! Version Identifier

OS:SizingPeriod:DesignDay,
  {7591bf6b-3c2f-444e-8fa0-1ca81d656c12}, ! Handle
  Pierre Municipal Ap Ann Clg 2% Condns Enth=>MDB, ! Name
  30.2,                                   ! Maximum Dry-Bulb Temperature {C}
  14.3,                                   ! Daily Dry-Bulb Temperature Range {deltaC}
  67300,                                  ! Humidity Indicating Conditions at Maximum Dry-Bulb {BasedOnField A3}
  95141,                                  ! Barometric Pressure {Pa}
  6.2,                                    ! Wind Speed {m/s}
  170,                                    ! Wind Direction {deg}
  0,                                      ! Sky Clearness
  0,                                      ! Rain Indicator
  0,                                      ! Snow Indicator
  21,                                     ! Day of Month
  7,                                      ! Month
  SummerDesignDay,                        ! Day Type
  0,                                      ! Daylight Saving Time Indicator
  Enthalpy,                               ! Humidity Indicating Type
  ,                                       ! Humidity Indicating Day Schedule Name
  DefaultMultipliers,                     ! Dry-Bulb Temperature Range Modifier Type
  ,                                       ! Dry-Bulb Temperature Range Modifier Schedule Name
  ASHRAETau,                              ! Solar Model Indicator
  ,                                       ! Beam Solar Day Schedule Name
  ,                                       ! Diffuse Solar Day Schedule Name
  0.427,                                  ! ASHRAE Taub {dimensionless}
  2.103;                                  ! ASHRAE Taud {dimensionless}

OS:ComponentData,
  {9c643261-dd49-4787-b836-00305a6c8d44}, ! Handle
  Component Data 1,                       ! Name
  {4f482714-0a40-48af-8ab5-2e080ad0c3dc}, ! UUID
  {5eadc1e0-536e-455e-837c-def7c5e922b1}, ! Version UUID
  1366310437,                             ! Creation Timestamp
  1366310437,                             ! Version Timestamp
  {7591bf6b-3c2f-444e-8fa0-1ca81d656c12}; ! Name of Object 1

