
OS:Version,
  {a8115dee-5bac-48d9-adfe-2bff2d3d0a47}, ! Handle
  0.9.3;                                  ! Version Identifier

OS:SizingPeriod:DesignDay,
  {41dbf48b-ec05-449a-b14e-d8b54f32c1d5}, ! Handle
  Orlando Ann Htg 99.6% Condns DB,        ! Name
  4.4,                                    ! Maximum Dry-Bulb Temperature {C}
  0,                                      ! Daily Dry-Bulb Temperature Range {deltaC}
  4.4,                                    ! Humidity Indicating Conditions at Maximum Dry-Bulb {BasedOnField A3}
  100941,                                 ! Barometric Pressure {Pa}
  3.5,                                    ! Wind Speed {m/s}
  310,                                    ! Wind Direction {deg}
  0,                                      ! Sky Clearness
  0,                                      ! Rain Indicator
  0,                                      ! Snow Indicator
  21,                                     ! Day of Month
  12,                                     ! Month
  WinterDesignDay,                        ! Day Type
  0,                                      ! Daylight Saving Time Indicator
  Wetbulb,                                ! Humidity Indicating Type
  ,                                       ! Humidity Indicating Day Schedule Name
  DefaultMultipliers,                     ! Dry-Bulb Temperature Range Modifier Type
  ,                                       ! Dry-Bulb Temperature Range Modifier Schedule Name
  ASHRAEClearSky;                         ! Solar Model Indicator

OS:ComponentData,
  {c685a12d-f68f-47cb-80da-bd8a209e2728}, ! Handle
  Component Data 1,                       ! Name
  {e094b41b-75f5-4cae-8268-e8a65292ce4c}, ! UUID
  {16632781-0acb-4348-862d-7f288e8ee597}, ! Version UUID
  1366306887,                             ! Creation Timestamp
  1366306887,                             ! Version Timestamp
  {41dbf48b-ec05-449a-b14e-d8b54f32c1d5}; ! Name of Object 1

