
OS:Version,
  {def736d8-271b-43ba-9846-309fe0216d95}, ! Handle
  0.9.3;                                  ! Version Identifier

OS:SizingPeriod:DesignDay,
  {19ee0c1b-ad31-4047-a2a0-f24d7dcf428b}, ! Handle
  RALEIGH Ann Htg Wind 99% Condns WS=>MCDB, ! Name
  8.8,                                    ! Maximum Dry-Bulb Temperature {C}
  0,                                      ! Daily Dry-Bulb Temperature Range {deltaC}
  8.8,                                    ! Humidity Indicating Conditions at Maximum Dry-Bulb {BasedOnField A3}
  99726,                                  ! Barometric Pressure {Pa}
  9.2,                                    ! Wind Speed {m/s}
  30,                                     ! Wind Direction {deg}
  0,                                      ! Sky Clearness
  0,                                      ! Rain Indicator
  0,                                      ! Snow Indicator
  21,                                     ! Day of Month
  1,                                      ! Month
  WinterDesignDay,                        ! Day Type
  0,                                      ! Daylight Saving Time Indicator
  Wetbulb,                                ! Humidity Indicating Type
  ,                                       ! Humidity Indicating Day Schedule Name
  DefaultMultipliers,                     ! Dry-Bulb Temperature Range Modifier Type
  ,                                       ! Dry-Bulb Temperature Range Modifier Schedule Name
  ASHRAEClearSky;                         ! Solar Model Indicator

OS:ComponentData,
  {20e449ce-6a31-4254-aae5-9a77400e8fea}, ! Handle
  Component Data 1,                       ! Name
  {3acf6d4d-a59f-4b22-8e86-12a506caf4d8}, ! UUID
  {0b8c0344-9cda-4d59-8373-f8aa146c8848}, ! Version UUID
  1366308964,                             ! Creation Timestamp
  1366308964,                             ! Version Timestamp
  {19ee0c1b-ad31-4047-a2a0-f24d7dcf428b}; ! Name of Object 1

