
OS:Version,
  {ffaba455-4a13-410a-a051-ee1eb48a5293}, ! Handle
  0.9.3;                                  ! Version Identifier

OS:SizingPeriod:DesignDay,
  {951898b7-7058-4cb0-a7cd-147e14f30f8a}, ! Handle
  Philadelphia International Ap Ann Clg .4% Condns WB=>MDB, ! Name
  31.4,                                   ! Maximum Dry-Bulb Temperature {C}
  9.4,                                    ! Daily Dry-Bulb Temperature Range {deltaC}
  25.7,                                   ! Humidity Indicating Conditions at Maximum Dry-Bulb {BasedOnField A3}
  101301,                                 ! Barometric Pressure {Pa}
  5,                                      ! Wind Speed {m/s}
  240,                                    ! Wind Direction {deg}
  0,                                      ! Sky Clearness
  0,                                      ! Rain Indicator
  0,                                      ! Snow Indicator
  21,                                     ! Day of Month
  7,                                      ! Month
  SummerDesignDay,                        ! Day Type
  0,                                      ! Daylight Saving Time Indicator
  Wetbulb,                                ! Humidity Indicating Type
  ,                                       ! Humidity Indicating Day Schedule Name
  DefaultMultipliers,                     ! Dry-Bulb Temperature Range Modifier Type
  ,                                       ! Dry-Bulb Temperature Range Modifier Schedule Name
  ASHRAETau,                              ! Solar Model Indicator
  ,                                       ! Beam Solar Day Schedule Name
  ,                                       ! Diffuse Solar Day Schedule Name
  0.55,                                   ! ASHRAE Taub {dimensionless}
  1.776;                                  ! ASHRAE Taud {dimensionless}

OS:ComponentData,
  {e0176dda-c3a2-4129-8dd1-1d6fc5165639}, ! Handle
  Component Data 1,                       ! Name
  {654adabb-d61a-40cc-89ce-79ac982e11c9}, ! UUID
  {7924afa2-7c1f-44f8-8051-682a3c18feba}, ! Version UUID
  1366310223,                             ! Creation Timestamp
  1366310223,                             ! Version Timestamp
  {951898b7-7058-4cb0-a7cd-147e14f30f8a}; ! Name of Object 1

