
OS:Version,
  {7e4ffe2d-0fd7-4683-8904-23d871a8b395}, ! Handle
  0.9.3;                                  ! Version Identifier

OS:SizingPeriod:DesignDay,
  {51893bed-7105-4946-8b3c-ed2ec41c1de6}, ! Handle
  Wink Winkler County Ap Ann Clg 2% Condns WB=>MDB, ! Name
  31.3,                                   ! Maximum Dry-Bulb Temperature {C}
  14,                                     ! Daily Dry-Bulb Temperature Range {deltaC}
  21.8,                                   ! Humidity Indicating Conditions at Maximum Dry-Bulb {BasedOnField A3}
  91455,                                  ! Barometric Pressure {Pa}
  4.4,                                    ! Wind Speed {m/s}
  120,                                    ! Wind Direction {deg}
  0,                                      ! Sky Clearness
  0,                                      ! Rain Indicator
  0,                                      ! Snow Indicator
  21,                                     ! Day of Month
  7,                                      ! Month
  SummerDesignDay,                        ! Day Type
  0,                                      ! Daylight Saving Time Indicator
  Wetbulb,                                ! Humidity Indicating Type
  ,                                       ! Humidity Indicating Day Schedule Name
  DefaultMultipliers,                     ! Dry-Bulb Temperature Range Modifier Type
  ,                                       ! Dry-Bulb Temperature Range Modifier Schedule Name
  ASHRAETau,                              ! Solar Model Indicator
  ,                                       ! Beam Solar Day Schedule Name
  ,                                       ! Diffuse Solar Day Schedule Name
  0.461,                                  ! ASHRAE Taub {dimensionless}
  1.952;                                  ! ASHRAE Taud {dimensionless}

OS:ComponentData,
  {ead2b045-2395-4366-a953-ef550224e9f5}, ! Handle
  Component Data 1,                       ! Name
  {24be15f5-d3e5-4c4d-a891-7eb62f9df9e5}, ! UUID
  {0f9d7551-1ab8-4512-b681-b73c618f8e11}, ! Version UUID
  1366310941,                             ! Creation Timestamp
  1366310941,                             ! Version Timestamp
  {51893bed-7105-4946-8b3c-ed2ec41c1de6}; ! Name of Object 1

