
OS:Version,
  {e98f7609-b791-4380-9e30-2467bd4fd20a}, ! Handle
  0.9.3;                                  ! Version Identifier

OS:SizingPeriod:DesignDay,
  {a0c460f8-d208-4acf-8dd3-d17037ae4d17}, ! Handle
  Yakutat Ann Hum_n 99.6% Condns DP=>MCDB, ! Name
  -13.2,                                  ! Maximum Dry-Bulb Temperature {C}
  0,                                      ! Daily Dry-Bulb Temperature Range {deltaC}
  -22.3,                                  ! Humidity Indicating Conditions at Maximum Dry-Bulb {BasedOnField A3}
  101217,                                 ! Barometric Pressure {Pa}
  0.8,                                    ! Wind Speed {m/s}
  100,                                    ! Wind Direction {deg}
  0,                                      ! Sky Clearness
  0,                                      ! Rain Indicator
  0,                                      ! Snow Indicator
  21,                                     ! Day of Month
  1,                                      ! Month
  WinterDesignDay,                        ! Day Type
  0,                                      ! Daylight Saving Time Indicator
  Dewpoint,                               ! Humidity Indicating Type
  ,                                       ! Humidity Indicating Day Schedule Name
  DefaultMultipliers,                     ! Dry-Bulb Temperature Range Modifier Type
  ,                                       ! Dry-Bulb Temperature Range Modifier Schedule Name
  ASHRAEClearSky;                         ! Solar Model Indicator

OS:ComponentData,
  {3ac6d27b-7ac5-4672-b43c-a4f0a041f91f}, ! Handle
  Component Data 1,                       ! Name
  {e0de2b69-ef28-4683-8adb-cf8bd2e495e2}, ! UUID
  {4e514706-ba4e-474d-adf9-c746892358f1}, ! Version UUID
  1366305623,                             ! Creation Timestamp
  1366305623,                             ! Version Timestamp
  {a0c460f8-d208-4acf-8dd3-d17037ae4d17}; ! Name of Object 1

