
OS:Version,
  {b2cf7a95-9b6c-430d-86b1-c0a081a31808}, ! Handle
  0.9.3;                                  ! Version Identifier

OS:SizingPeriod:DesignDay,
  {311848fc-1158-44b4-bf6f-0802d13c350e}, ! Handle
  Tonopah Airport Ann Clg .4% Condns WB=>MDB, ! Name
  30.8,                                   ! Maximum Dry-Bulb Temperature {C}
  18.2,                                   ! Daily Dry-Bulb Temperature Range {deltaC}
  17.4,                                   ! Humidity Indicating Conditions at Maximum Dry-Bulb {BasedOnField A3}
  82960,                                  ! Barometric Pressure {Pa}
  5.1,                                    ! Wind Speed {m/s}
  180,                                    ! Wind Direction {deg}
  0,                                      ! Sky Clearness
  0,                                      ! Rain Indicator
  0,                                      ! Snow Indicator
  21,                                     ! Day of Month
  7,                                      ! Month
  SummerDesignDay,                        ! Day Type
  0,                                      ! Daylight Saving Time Indicator
  Wetbulb,                                ! Humidity Indicating Type
  ,                                       ! Humidity Indicating Day Schedule Name
  DefaultMultipliers,                     ! Dry-Bulb Temperature Range Modifier Type
  ,                                       ! Dry-Bulb Temperature Range Modifier Schedule Name
  ASHRAETau,                              ! Solar Model Indicator
  ,                                       ! Beam Solar Day Schedule Name
  ,                                       ! Diffuse Solar Day Schedule Name
  0.483,                                  ! ASHRAE Taub {dimensionless}
  1.772;                                  ! ASHRAE Taud {dimensionless}

OS:ComponentData,
  {ce30a533-da90-42e0-9de2-88d1fe9d49a0}, ! Handle
  Component Data 1,                       ! Name
  {d2b545c9-0e96-43fa-8b87-803cbbb9b032}, ! UUID
  {35910188-0638-4087-b062-8bf0188c1ccc}, ! Version UUID
  1366309555,                             ! Creation Timestamp
  1366309555,                             ! Version Timestamp
  {311848fc-1158-44b4-bf6f-0802d13c350e}; ! Name of Object 1

