
OS:Version,
  {7d9221fd-40a0-453b-ad50-fb132549769b}, ! Handle
  0.9.3;                                  ! Version Identifier

OS:SizingPeriod:DesignDay,
  {a44fed63-85ec-4b06-b281-0ef766cbd466}, ! Handle
  Wink Winkler County Ap Ann Htg Wind 99.6% Condns WS=>MCDB, ! Name
  16.8,                                   ! Maximum Dry-Bulb Temperature {C}
  0,                                      ! Daily Dry-Bulb Temperature Range {deltaC}
  16.8,                                   ! Humidity Indicating Conditions at Maximum Dry-Bulb {BasedOnField A3}
  91455,                                  ! Barometric Pressure {Pa}
  12.6,                                   ! Wind Speed {m/s}
  350,                                    ! Wind Direction {deg}
  0,                                      ! Sky Clearness
  0,                                      ! Rain Indicator
  0,                                      ! Snow Indicator
  21,                                     ! Day of Month
  12,                                     ! Month
  WinterDesignDay,                        ! Day Type
  0,                                      ! Daylight Saving Time Indicator
  Wetbulb,                                ! Humidity Indicating Type
  ,                                       ! Humidity Indicating Day Schedule Name
  DefaultMultipliers,                     ! Dry-Bulb Temperature Range Modifier Type
  ,                                       ! Dry-Bulb Temperature Range Modifier Schedule Name
  ASHRAEClearSky;                         ! Solar Model Indicator

OS:ComponentData,
  {48bebd6c-2bac-4e8c-9de3-07c766a63b3b}, ! Handle
  Component Data 1,                       ! Name
  {2422fb13-9208-436e-b6cc-9223d68331da}, ! UUID
  {481ef6a1-46bf-41ec-97d9-f20328023976}, ! Version UUID
  1366310939,                             ! Creation Timestamp
  1366310939,                             ! Version Timestamp
  {a44fed63-85ec-4b06-b281-0ef766cbd466}; ! Name of Object 1

