
OS:Version,
  {aa3e79a4-174a-4605-b650-e2fe3f133520}, ! Handle
  0.9.3;                                  ! Version Identifier

OS:SizingPeriod:DesignDay,
  {f24fe6f2-3267-4221-8533-ce541f0cbfaf}, ! Handle
  Winnemucca Municipal Arpt Ann Hum_n 99% Condns DP=>MCDB, ! Name
  -8.3,                                   ! Maximum Dry-Bulb Temperature {C}
  0,                                      ! Daily Dry-Bulb Temperature Range {deltaC}
  -16.7,                                  ! Humidity Indicating Conditions at Maximum Dry-Bulb {BasedOnField A3}
  86546,                                  ! Barometric Pressure {Pa}
  2,                                      ! Wind Speed {m/s}
  160,                                    ! Wind Direction {deg}
  0,                                      ! Sky Clearness
  0,                                      ! Rain Indicator
  0,                                      ! Snow Indicator
  21,                                     ! Day of Month
  12,                                     ! Month
  WinterDesignDay,                        ! Day Type
  0,                                      ! Daylight Saving Time Indicator
  Dewpoint,                               ! Humidity Indicating Type
  ,                                       ! Humidity Indicating Day Schedule Name
  DefaultMultipliers,                     ! Dry-Bulb Temperature Range Modifier Type
  ,                                       ! Dry-Bulb Temperature Range Modifier Schedule Name
  ASHRAEClearSky;                         ! Solar Model Indicator

OS:ComponentData,
  {091e24c7-808a-4aa2-9a52-0354e48278d6}, ! Handle
  Component Data 1,                       ! Name
  {d1387264-301b-4df1-9eaf-e05c0939e16f}, ! UUID
  {b59f34b0-f271-4da4-ba59-a0cc60da24ff}, ! Version UUID
  1366309568,                             ! Creation Timestamp
  1366309568,                             ! Version Timestamp
  {f24fe6f2-3267-4221-8533-ce541f0cbfaf}; ! Name of Object 1

