
OS:Version,
  {2b36ddfa-0630-4f56-843e-bbd7ebcdeec0}, ! Handle
  0.9.3;                                  ! Version Identifier

OS:SizingPeriod:DesignDay,
  {8340f623-a572-4206-bd56-c322294ee352}, ! Handle
  Whittier Ann Hum_n 99.6% Condns DP=>MCDB, ! Name
  -13.9,                                  ! Maximum Dry-Bulb Temperature {C}
  0,                                      ! Daily Dry-Bulb Temperature Range {deltaC}
  -22.4,                                  ! Humidity Indicating Conditions at Maximum Dry-Bulb {BasedOnField A3}
  101217,                                 ! Barometric Pressure {Pa}
  11.9,                                   ! Wind Speed {m/s}
  210,                                    ! Wind Direction {deg}
  0,                                      ! Sky Clearness
  0,                                      ! Rain Indicator
  0,                                      ! Snow Indicator
  21,                                     ! Day of Month
  1,                                      ! Month
  WinterDesignDay,                        ! Day Type
  0,                                      ! Daylight Saving Time Indicator
  Dewpoint,                               ! Humidity Indicating Type
  ,                                       ! Humidity Indicating Day Schedule Name
  DefaultMultipliers,                     ! Dry-Bulb Temperature Range Modifier Type
  ,                                       ! Dry-Bulb Temperature Range Modifier Schedule Name
  ASHRAEClearSky;                         ! Solar Model Indicator

OS:ComponentData,
  {a984313c-c3ba-4ff8-9b09-5c04413df940}, ! Handle
  Component Data 1,                       ! Name
  {75e0d894-7eb7-485f-94c9-2619e70d18d6}, ! UUID
  {ca1d99a1-fe15-4353-aa1a-472f2d272d33}, ! Version UUID
  1366305611,                             ! Creation Timestamp
  1366305611,                             ! Version Timestamp
  {8340f623-a572-4206-bd56-c322294ee352}; ! Name of Object 1

