
OS:Version,
  {aa5839ed-d216-4ffd-b827-f5ea672ac9e3}, ! Handle
  0.9.3;                                  ! Version Identifier

OS:SizingPeriod:DesignDay,
  {9bdfb5b5-b598-4d33-8d90-a7fc51dd2ec4}, ! Handle
  Ohio State Universi Ann Htg 99% Condns DB, ! Name
  -11.3,                                  ! Maximum Dry-Bulb Temperature {C}
  0,                                      ! Daily Dry-Bulb Temperature Range {deltaC}
  -11.3,                                  ! Humidity Indicating Conditions at Maximum Dry-Bulb {BasedOnField A3}
  97971,                                  ! Barometric Pressure {Pa}
  3.3,                                    ! Wind Speed {m/s}
  260,                                    ! Wind Direction {deg}
  0,                                      ! Sky Clearness
  0,                                      ! Rain Indicator
  0,                                      ! Snow Indicator
  21,                                     ! Day of Month
  1,                                      ! Month
  WinterDesignDay,                        ! Day Type
  0,                                      ! Daylight Saving Time Indicator
  Wetbulb,                                ! Humidity Indicating Type
  ,                                       ! Humidity Indicating Day Schedule Name
  DefaultMultipliers,                     ! Dry-Bulb Temperature Range Modifier Type
  ,                                       ! Dry-Bulb Temperature Range Modifier Schedule Name
  ASHRAEClearSky;                         ! Solar Model Indicator

OS:ComponentData,
  {d8f0e9ea-6206-43b7-ba2d-1a5a9859c634}, ! Handle
  Component Data 1,                       ! Name
  {381b0aee-e6e0-4075-b662-b1306da1826e}, ! UUID
  {904303d3-dd34-441b-998f-f206c3a8ed01}, ! Version UUID
  1366309839,                             ! Creation Timestamp
  1366309839,                             ! Version Timestamp
  {9bdfb5b5-b598-4d33-8d90-a7fc51dd2ec4}; ! Name of Object 1

