
OS:Version,
  {d4920434-4a6d-4c11-8c11-63327de4b39d}, ! Handle
  0.9.3;                                  ! Version Identifier

OS:SizingPeriod:DesignDay,
  {8ba5793e-9174-4477-881c-10d04876fa12}, ! Handle
  MIAMI Ann Clg 2% Condns Enth=>MDB,      ! Name
  30.2,                                   ! Maximum Dry-Bulb Temperature {C}
  6.7,                                    ! Daily Dry-Bulb Temperature Range {deltaC}
  80600,                                  ! Humidity Indicating Conditions at Maximum Dry-Bulb {BasedOnField A3}
  101301,                                 ! Barometric Pressure {Pa}
  4.5,                                    ! Wind Speed {m/s}
  140,                                    ! Wind Direction {deg}
  0,                                      ! Sky Clearness
  0,                                      ! Rain Indicator
  0,                                      ! Snow Indicator
  21,                                     ! Day of Month
  7,                                      ! Month
  SummerDesignDay,                        ! Day Type
  0,                                      ! Daylight Saving Time Indicator
  Enthalpy,                               ! Humidity Indicating Type
  ,                                       ! Humidity Indicating Day Schedule Name
  DefaultMultipliers,                     ! Dry-Bulb Temperature Range Modifier Type
  ,                                       ! Dry-Bulb Temperature Range Modifier Schedule Name
  ASHRAETau,                              ! Solar Model Indicator
  ,                                       ! Beam Solar Day Schedule Name
  ,                                       ! Diffuse Solar Day Schedule Name
  0.528,                                  ! ASHRAE Taub {dimensionless}
  1.905;                                  ! ASHRAE Taud {dimensionless}

OS:ComponentData,
  {8546a586-7a47-49ad-b4ac-4082bf121191}, ! Handle
  Component Data 1,                       ! Name
  {82b2522c-862f-482a-ac01-bfac86dec3dc}, ! UUID
  {b3db5a94-5ea8-4746-bf14-1ca4d0ae9647}, ! Version UUID
  1366306861,                             ! Creation Timestamp
  1366306861,                             ! Version Timestamp
  {8ba5793e-9174-4477-881c-10d04876fa12}; ! Name of Object 1

