
OS:Version,
  {9be58d4a-7a9f-437a-b665-7851fa51bbbe}, ! Handle
  0.9.3;                                  ! Version Identifier

OS:SizingPeriod:DesignDay,
  {f66b60a2-aef0-46d1-941e-aa595825d832}, ! Handle
  Rochester Greater Rochester I Ann Clg .4% Condns DB=>MWB, ! Name
  31.3,                                   ! Maximum Dry-Bulb Temperature {C}
  10.7,                                   ! Daily Dry-Bulb Temperature Range {deltaC}
  22.9,                                   ! Humidity Indicating Conditions at Maximum Dry-Bulb {BasedOnField A3}
  99146,                                  ! Barometric Pressure {Pa}
  5.2,                                    ! Wind Speed {m/s}
  240,                                    ! Wind Direction {deg}
  0,                                      ! Sky Clearness
  0,                                      ! Rain Indicator
  0,                                      ! Snow Indicator
  21,                                     ! Day of Month
  7,                                      ! Month
  SummerDesignDay,                        ! Day Type
  0,                                      ! Daylight Saving Time Indicator
  Wetbulb,                                ! Humidity Indicating Type
  ,                                       ! Humidity Indicating Day Schedule Name
  DefaultMultipliers,                     ! Dry-Bulb Temperature Range Modifier Type
  ,                                       ! Dry-Bulb Temperature Range Modifier Schedule Name
  ASHRAETau,                              ! Solar Model Indicator
  ,                                       ! Beam Solar Day Schedule Name
  ,                                       ! Diffuse Solar Day Schedule Name
  0.463,                                  ! ASHRAE Taub {dimensionless}
  2.001;                                  ! ASHRAE Taud {dimensionless}

OS:ComponentData,
  {2d41f606-cfca-4bf4-b06c-2e86b8ca79eb}, ! Handle
  Component Data 1,                       ! Name
  {b4e033c3-b78b-4fc0-a207-7360876c5669}, ! UUID
  {9f80c130-3fe8-4c75-b45b-c88d807e4957}, ! Version UUID
  1366309718,                             ! Creation Timestamp
  1366309718,                             ! Version Timestamp
  {f66b60a2-aef0-46d1-941e-aa595825d832}; ! Name of Object 1

