
OS:Version,
  {16da3af4-5e6e-40f5-8b72-dcc7dd0910c7}, ! Handle
  0.9.3;                                  ! Version Identifier

OS:SizingPeriod:DesignDay,
  {6fee9fee-fb8b-44ac-bc9d-0753c87062b5}, ! Handle
  MADISON Ann Clg .4% Condns Enth=>MDB,   ! Name
  30.1,                                   ! Maximum Dry-Bulb Temperature {C}
  11.1,                                   ! Daily Dry-Bulb Temperature Range {deltaC}
  77700,                                  ! Humidity Indicating Conditions at Maximum Dry-Bulb {BasedOnField A3}
  98217,                                  ! Barometric Pressure {Pa}
  5.1,                                    ! Wind Speed {m/s}
  180,                                    ! Wind Direction {deg}
  0,                                      ! Sky Clearness
  0,                                      ! Rain Indicator
  0,                                      ! Snow Indicator
  21,                                     ! Day of Month
  7,                                      ! Month
  SummerDesignDay,                        ! Day Type
  0,                                      ! Daylight Saving Time Indicator
  Enthalpy,                               ! Humidity Indicating Type
  ,                                       ! Humidity Indicating Day Schedule Name
  DefaultMultipliers,                     ! Dry-Bulb Temperature Range Modifier Type
  ,                                       ! Dry-Bulb Temperature Range Modifier Schedule Name
  ASHRAETau,                              ! Solar Model Indicator
  ,                                       ! Beam Solar Day Schedule Name
  ,                                       ! Diffuse Solar Day Schedule Name
  0.435,                                  ! ASHRAE Taub {dimensionless}
  2.109;                                  ! ASHRAE Taud {dimensionless}

OS:ComponentData,
  {41f11c56-7403-4758-a790-19e59101250b}, ! Handle
  Component Data 1,                       ! Name
  {69791b48-76c5-443a-8508-9e8578a4c91a}, ! UUID
  {b0489054-154f-4afe-a285-150b2c751b13}, ! Version UUID
  1366311533,                             ! Creation Timestamp
  1366311533,                             ! Version Timestamp
  {6fee9fee-fb8b-44ac-bc9d-0753c87062b5}; ! Name of Object 1

