
OS:Version,
  {21ec0989-e373-4a9d-9ec3-3f0adb52da29}, ! Handle
  0.9.3;                                  ! Version Identifier

OS:SizingPeriod:DesignDay,
  {6067cdd1-ff6a-4f10-969b-f59d6eef79ed}, ! Handle
  Quillayute State Airport Ann Clg .4% Condns DP=>MDB, ! Name
  18.8,                                   ! Maximum Dry-Bulb Temperature {C}
  9.8,                                    ! Daily Dry-Bulb Temperature Range {deltaC}
  15.8,                                   ! Humidity Indicating Conditions at Maximum Dry-Bulb {BasedOnField A3}
  100666,                                 ! Barometric Pressure {Pa}
  3.7,                                    ! Wind Speed {m/s}
  240,                                    ! Wind Direction {deg}
  0,                                      ! Sky Clearness
  0,                                      ! Rain Indicator
  0,                                      ! Snow Indicator
  21,                                     ! Day of Month
  8,                                      ! Month
  SummerDesignDay,                        ! Day Type
  0,                                      ! Daylight Saving Time Indicator
  Dewpoint,                               ! Humidity Indicating Type
  ,                                       ! Humidity Indicating Day Schedule Name
  DefaultMultipliers,                     ! Dry-Bulb Temperature Range Modifier Type
  ,                                       ! Dry-Bulb Temperature Range Modifier Schedule Name
  ASHRAETau,                              ! Solar Model Indicator
  ,                                       ! Beam Solar Day Schedule Name
  ,                                       ! Diffuse Solar Day Schedule Name
  0.351,                                  ! ASHRAE Taub {dimensionless}
  2.578;                                  ! ASHRAE Taud {dimensionless}

