
OS:Version,
  {c9897b4e-b87c-4614-a679-ae4d81ca9391}, ! Handle
  0.9.3;                                  ! Version Identifier

OS:SizingPeriod:DesignDay,
  {79e32b31-5e68-49d0-908f-c9ca519815cc}, ! Handle
  Pocatello Regional Ap Ann Htg 99.6% Condns DB, ! Name
  -20.5,                                  ! Maximum Dry-Bulb Temperature {C}
  0,                                      ! Daily Dry-Bulb Temperature Range {deltaC}
  -20.5,                                  ! Humidity Indicating Conditions at Maximum Dry-Bulb {BasedOnField A3}
  86092,                                  ! Barometric Pressure {Pa}
  2.1,                                    ! Wind Speed {m/s}
  30,                                     ! Wind Direction {deg}
  0,                                      ! Sky Clearness
  0,                                      ! Rain Indicator
  0,                                      ! Snow Indicator
  21,                                     ! Day of Month
  12,                                     ! Month
  WinterDesignDay,                        ! Day Type
  0,                                      ! Daylight Saving Time Indicator
  Wetbulb,                                ! Humidity Indicating Type
  ,                                       ! Humidity Indicating Day Schedule Name
  DefaultMultipliers,                     ! Dry-Bulb Temperature Range Modifier Type
  ,                                       ! Dry-Bulb Temperature Range Modifier Schedule Name
  ASHRAEClearSky;                         ! Solar Model Indicator

OS:ComponentData,
  {6870b0b3-03b9-4e0a-810e-77e387e12728}, ! Handle
  Component Data 1,                       ! Name
  {94ad221c-ce19-49b6-a642-442c594de507}, ! UUID
  {fc8b7206-32eb-4804-8434-e429854cc28e}, ! Version UUID
  1366307306,                             ! Creation Timestamp
  1366307306,                             ! Version Timestamp
  {79e32b31-5e68-49d0-908f-c9ca519815cc}; ! Name of Object 1

