
OS:Version,
  {85d50e5c-60b7-474f-8dba-b3f3ecf9e3fe}, ! Handle
  0.9.3;                                  ! Version Identifier

OS:SizingPeriod:DesignDay,
  {94ab948b-7d25-49bc-a63a-673f291055fb}, ! Handle
  Porterville  Awos Ann Clg 2% Condns WB=>MDB, ! Name
  33.8,                                   ! Maximum Dry-Bulb Temperature {C}
  17.1,                                   ! Daily Dry-Bulb Temperature Range {deltaC}
  20.8,                                   ! Humidity Indicating Conditions at Maximum Dry-Bulb {BasedOnField A3}
  99714,                                  ! Barometric Pressure {Pa}
  4,                                      ! Wind Speed {m/s}
  320,                                    ! Wind Direction {deg}
  0,                                      ! Sky Clearness
  0,                                      ! Rain Indicator
  0,                                      ! Snow Indicator
  21,                                     ! Day of Month
  7,                                      ! Month
  SummerDesignDay,                        ! Day Type
  0,                                      ! Daylight Saving Time Indicator
  Wetbulb,                                ! Humidity Indicating Type
  ,                                       ! Humidity Indicating Day Schedule Name
  DefaultMultipliers,                     ! Dry-Bulb Temperature Range Modifier Type
  ,                                       ! Dry-Bulb Temperature Range Modifier Schedule Name
  ASHRAETau,                              ! Solar Model Indicator
  ,                                       ! Beam Solar Day Schedule Name
  ,                                       ! Diffuse Solar Day Schedule Name
  0.458,                                  ! ASHRAE Taub {dimensionless}
  2.053;                                  ! ASHRAE Taud {dimensionless}

OS:ComponentData,
  {71094d91-7090-4fb0-b754-c67cbe90df68}, ! Handle
  Component Data 1,                       ! Name
  {40a53f71-7117-4f2a-a5fc-5baf8f861359}, ! UUID
  {9dd6a7e0-ba5b-4c50-b00f-ed54bbc0581d}, ! Version UUID
  1366306542,                             ! Creation Timestamp
  1366306542,                             ! Version Timestamp
  {94ab948b-7d25-49bc-a63a-673f291055fb}; ! Name of Object 1

