
OS:Version,
  {d9358a7e-68ef-4c2a-ae4a-1dd4875d7da8}, ! Handle
  0.9.3;                                  ! Version Identifier

OS:SizingPeriod:DesignDay,
  {2481a25c-f909-4737-80f9-6242a28fdf90}, ! Handle
  San Diego Lindbergh Field Ann Clg 1% Condns DB=>MWB, ! Name
  27.3,                                   ! Maximum Dry-Bulb Temperature {C}
  4.9,                                    ! Daily Dry-Bulb Temperature Range {deltaC}
  19.7,                                   ! Humidity Indicating Conditions at Maximum Dry-Bulb {BasedOnField A3}
  101277,                                 ! Barometric Pressure {Pa}
  4.6,                                    ! Wind Speed {m/s}
  300,                                    ! Wind Direction {deg}
  0,                                      ! Sky Clearness
  0,                                      ! Rain Indicator
  0,                                      ! Snow Indicator
  21,                                     ! Day of Month
  8,                                      ! Month
  SummerDesignDay,                        ! Day Type
  0,                                      ! Daylight Saving Time Indicator
  Wetbulb,                                ! Humidity Indicating Type
  ,                                       ! Humidity Indicating Day Schedule Name
  DefaultMultipliers,                     ! Dry-Bulb Temperature Range Modifier Type
  ,                                       ! Dry-Bulb Temperature Range Modifier Schedule Name
  ASHRAETau,                              ! Solar Model Indicator
  ,                                       ! Beam Solar Day Schedule Name
  ,                                       ! Diffuse Solar Day Schedule Name
  0.426,                                  ! ASHRAE Taub {dimensionless}
  2.214;                                  ! ASHRAE Taud {dimensionless}

OS:ComponentData,
  {05d66608-90cc-4360-ac37-39d778f0bd6e}, ! Handle
  Component Data 1,                       ! Name
  {d5cd74db-42be-46e6-9db4-2525b1f188b6}, ! UUID
  {3b8ac725-55bd-4012-93d2-62ec84a6afcc}, ! Version UUID
  1366306575,                             ! Creation Timestamp
  1366306575,                             ! Version Timestamp
  {2481a25c-f909-4737-80f9-6242a28fdf90}; ! Name of Object 1

