
OS:Version,
  {a4553eae-9335-4a64-99eb-8a877edb2bad}, ! Handle
  0.9.3;                                  ! Version Identifier

OS:SizingPeriod:DesignDay,
  {1ad4410a-1605-4309-8981-f9e2e07599a1}, ! Handle
  Minot Faa Ap Ann Htg Wind 99.6% Condns WS=>MCDB, ! Name
  -6.4,                                   ! Maximum Dry-Bulb Temperature {C}
  0,                                      ! Daily Dry-Bulb Temperature Range {deltaC}
  -6.4,                                   ! Humidity Indicating Conditions at Maximum Dry-Bulb {BasedOnField A3}
  95198,                                  ! Barometric Pressure {Pa}
  14.4,                                   ! Wind Speed {m/s}
  280,                                    ! Wind Direction {deg}
  0,                                      ! Sky Clearness
  0,                                      ! Rain Indicator
  0,                                      ! Snow Indicator
  21,                                     ! Day of Month
  1,                                      ! Month
  WinterDesignDay,                        ! Day Type
  0,                                      ! Daylight Saving Time Indicator
  Wetbulb,                                ! Humidity Indicating Type
  ,                                       ! Humidity Indicating Day Schedule Name
  DefaultMultipliers,                     ! Dry-Bulb Temperature Range Modifier Type
  ,                                       ! Dry-Bulb Temperature Range Modifier Schedule Name
  ASHRAEClearSky;                         ! Solar Model Indicator

OS:ComponentData,
  {622aba3a-7bcf-4739-9200-87ad875fe4e5}, ! Handle
  Component Data 1,                       ! Name
  {efeb0cbb-040b-447c-8d0c-35e3932aa3bc}, ! UUID
  {ae5c7b23-5ac3-4f3e-9562-21df72be14b7}, ! Version UUID
  1366309067,                             ! Creation Timestamp
  1366309067,                             ! Version Timestamp
  {1ad4410a-1605-4309-8981-f9e2e07599a1}; ! Name of Object 1

