
OS:Version,
  {c3d74ff8-a746-4a34-b64a-a3d3feeb98a7}, ! Handle
  0.9.3;                                  ! Version Identifier

OS:SizingPeriod:DesignDay,
  {e6ca2a1a-c948-4ce9-9c44-9fc353321b41}, ! Handle
  Reno Tahoe International Ap Ann Hum_n 99.6% Condns DP=>MCDB, ! Name
  -1.2,                                   ! Maximum Dry-Bulb Temperature {C}
  0,                                      ! Daily Dry-Bulb Temperature Range {deltaC}
  -16.2,                                  ! Humidity Indicating Conditions at Maximum Dry-Bulb {BasedOnField A3}
  86208,                                  ! Barometric Pressure {Pa}
  1.2,                                    ! Wind Speed {m/s}
  180,                                    ! Wind Direction {deg}
  0,                                      ! Sky Clearness
  0,                                      ! Rain Indicator
  0,                                      ! Snow Indicator
  21,                                     ! Day of Month
  1,                                      ! Month
  WinterDesignDay,                        ! Day Type
  0,                                      ! Daylight Saving Time Indicator
  Dewpoint,                               ! Humidity Indicating Type
  ,                                       ! Humidity Indicating Day Schedule Name
  DefaultMultipliers,                     ! Dry-Bulb Temperature Range Modifier Type
  ,                                       ! Dry-Bulb Temperature Range Modifier Schedule Name
  ASHRAEClearSky;                         ! Solar Model Indicator

OS:ComponentData,
  {c865b920-4b96-42eb-8f1e-4a4b4cdfc98d}, ! Handle
  Component Data 1,                       ! Name
  {9f694283-e025-4409-abc8-5ca4921f9d27}, ! UUID
  {777af8bd-7f2e-4c26-9fb1-3bb28ae494db}, ! Version UUID
  1366309535,                             ! Creation Timestamp
  1366309535,                             ! Version Timestamp
  {e6ca2a1a-c948-4ce9-9c44-9fc353321b41}; ! Name of Object 1

