
OS:Version,
  {326b0481-e643-410d-b70d-8d8c92e1af83}, ! Handle
  0.9.3;                                  ! Version Identifier

OS:SizingPeriod:DesignDay,
  {f2ac58fb-0944-4486-9d3e-8364143d3db3}, ! Handle
  Massena Ap Ann Htg Wind 99.6% Condns WS=>MCDB, ! Name
  -7.9,                                   ! Maximum Dry-Bulb Temperature {C}
  0,                                      ! Daily Dry-Bulb Temperature Range {deltaC}
  -7.9,                                   ! Humidity Indicating Conditions at Maximum Dry-Bulb {BasedOnField A3}
  100547,                                 ! Barometric Pressure {Pa}
  11.8,                                   ! Wind Speed {m/s}
  270,                                    ! Wind Direction {deg}
  0,                                      ! Sky Clearness
  0,                                      ! Rain Indicator
  0,                                      ! Snow Indicator
  21,                                     ! Day of Month
  1,                                      ! Month
  WinterDesignDay,                        ! Day Type
  0,                                      ! Daylight Saving Time Indicator
  Wetbulb,                                ! Humidity Indicating Type
  ,                                       ! Humidity Indicating Day Schedule Name
  DefaultMultipliers,                     ! Dry-Bulb Temperature Range Modifier Type
  ,                                       ! Dry-Bulb Temperature Range Modifier Schedule Name
  ASHRAEClearSky;                         ! Solar Model Indicator

OS:ComponentData,
  {bb97c6d8-eef7-4a95-809b-58b914c44d18}, ! Handle
  Component Data 1,                       ! Name
  {dcbfdc96-ed03-4667-b68e-98be907f3a6e}, ! UUID
  {295172eb-847d-4d9e-b829-ba64ffb6de99}, ! Version UUID
  1366309654,                             ! Creation Timestamp
  1366309654,                             ! Version Timestamp
  {f2ac58fb-0944-4486-9d3e-8364143d3db3}; ! Name of Object 1

