
OS:Version,
  {bc83414c-7ea3-4de9-9d7c-5bc1b7c1d1a0}, ! Handle
  0.9.3;                                  ! Version Identifier

OS:SizingPeriod:DesignDay,
  {c9b8b2b3-fbe8-4daa-aa71-60fa50ced33a}, ! Handle
  Missoula Ann Clg 2% Condns DB=>MWB,     ! Name
  29.8,                                   ! Maximum Dry-Bulb Temperature {C}
  17.5,                                   ! Daily Dry-Bulb Temperature Range {deltaC}
  15.9,                                   ! Humidity Indicating Conditions at Maximum Dry-Bulb {BasedOnField A3}
  90180,                                  ! Barometric Pressure {Pa}
  4.4,                                    ! Wind Speed {m/s}
  320,                                    ! Wind Direction {deg}
  0,                                      ! Sky Clearness
  0,                                      ! Rain Indicator
  0,                                      ! Snow Indicator
  21,                                     ! Day of Month
  7,                                      ! Month
  SummerDesignDay,                        ! Day Type
  0,                                      ! Daylight Saving Time Indicator
  Wetbulb,                                ! Humidity Indicating Type
  ,                                       ! Humidity Indicating Day Schedule Name
  DefaultMultipliers,                     ! Dry-Bulb Temperature Range Modifier Type
  ,                                       ! Dry-Bulb Temperature Range Modifier Schedule Name
  ASHRAETau,                              ! Solar Model Indicator
  ,                                       ! Beam Solar Day Schedule Name
  ,                                       ! Diffuse Solar Day Schedule Name
  0.357,                                  ! ASHRAE Taub {dimensionless}
  2.409;                                  ! ASHRAE Taud {dimensionless}

