
OS:Version,
  {047d4721-9016-49bd-9999-365737d07736}, ! Handle
  0.9.3;                                  ! Version Identifier

OS:SizingPeriod:DesignDay,
  {d7c9699d-addf-45b5-859b-6e137f834715}, ! Handle
  Stillwater Rgnl Ann Clg .4% Condns DP=>MDB, ! Name
  29.8,                                   ! Maximum Dry-Bulb Temperature {C}
  12.5,                                   ! Daily Dry-Bulb Temperature Range {deltaC}
  23.9,                                   ! Humidity Indicating Conditions at Maximum Dry-Bulb {BasedOnField A3}
  97679,                                  ! Barometric Pressure {Pa}
  5.6,                                    ! Wind Speed {m/s}
  160,                                    ! Wind Direction {deg}
  0,                                      ! Sky Clearness
  0,                                      ! Rain Indicator
  0,                                      ! Snow Indicator
  21,                                     ! Day of Month
  7,                                      ! Month
  SummerDesignDay,                        ! Day Type
  0,                                      ! Daylight Saving Time Indicator
  Dewpoint,                               ! Humidity Indicating Type
  ,                                       ! Humidity Indicating Day Schedule Name
  DefaultMultipliers,                     ! Dry-Bulb Temperature Range Modifier Type
  ,                                       ! Dry-Bulb Temperature Range Modifier Schedule Name
  ASHRAETau,                              ! Solar Model Indicator
  ,                                       ! Beam Solar Day Schedule Name
  ,                                       ! Diffuse Solar Day Schedule Name
  0.433,                                  ! ASHRAE Taub {dimensionless}
  2.181;                                  ! ASHRAE Taud {dimensionless}

OS:ComponentData,
  {6b82080b-999d-42f8-92e8-3dfb2be61311}, ! Handle
  Component Data 1,                       ! Name
  {891aaa64-5af5-4451-bcfa-1cbf5c48852a}, ! UUID
  {99b03b0c-df87-40b1-8302-261341b0e8ed}, ! Version UUID
  1366309945,                             ! Creation Timestamp
  1366309945,                             ! Version Timestamp
  {d7c9699d-addf-45b5-859b-6e137f834715}; ! Name of Object 1

