
OS:Version,
  {72e78418-2bdd-4428-a671-8b314981282f}, ! Handle
  0.9.3;                                  ! Version Identifier

OS:SizingPeriod:DesignDay,
  {fdaf3d14-7bd4-4ed9-a83a-a0ebea632151}, ! Handle
  Modesto City County Ap Ann Hum_n 99.6% Condns DP=>MCDB, ! Name
  13.6,                                   ! Maximum Dry-Bulb Temperature {C}
  0,                                      ! Daily Dry-Bulb Temperature Range {deltaC}
  -4.3,                                   ! Humidity Indicating Conditions at Maximum Dry-Bulb {BasedOnField A3}
  100965,                                 ! Barometric Pressure {Pa}
  1.2,                                    ! Wind Speed {m/s}
  120,                                    ! Wind Direction {deg}
  0,                                      ! Sky Clearness
  0,                                      ! Rain Indicator
  0,                                      ! Snow Indicator
  21,                                     ! Day of Month
  1,                                      ! Month
  WinterDesignDay,                        ! Day Type
  0,                                      ! Daylight Saving Time Indicator
  Dewpoint,                               ! Humidity Indicating Type
  ,                                       ! Humidity Indicating Day Schedule Name
  DefaultMultipliers,                     ! Dry-Bulb Temperature Range Modifier Type
  ,                                       ! Dry-Bulb Temperature Range Modifier Schedule Name
  ASHRAEClearSky;                         ! Solar Model Indicator

OS:ComponentData,
  {71937c40-245b-4f4e-935b-1d228200c44a}, ! Handle
  Component Data 1,                       ! Name
  {6bdbc7f5-d970-4e3f-b4b7-8afd82837184}, ! UUID
  {706a7c54-8a8d-4fc3-a691-3e30dbfd8747}, ! Version UUID
  1366306490,                             ! Creation Timestamp
  1366306490,                             ! Version Timestamp
  {fdaf3d14-7bd4-4ed9-a83a-a0ebea632151}; ! Name of Object 1

