
OS:Version,
  {c3c93f40-6eed-4716-b1c9-73d2723c318d}, ! Handle
  0.9.3;                                  ! Version Identifier

OS:SizingPeriod:DesignDay,
  {9fc04d47-4ec5-48f8-8052-e08fcf7c28f3}, ! Handle
  St Paul Island Arpt Ann Htg Wind 99% Condns WS=>MCDB, ! Name
  -3.7,                                   ! Maximum Dry-Bulb Temperature {C}
  0,                                      ! Daily Dry-Bulb Temperature Range {deltaC}
  -3.7,                                   ! Humidity Indicating Conditions at Maximum Dry-Bulb {BasedOnField A3}
  101241,                                 ! Barometric Pressure {Pa}
  18.2,                                   ! Wind Speed {m/s}
  0,                                      ! Wind Direction {deg}
  0,                                      ! Sky Clearness
  0,                                      ! Rain Indicator
  0,                                      ! Snow Indicator
  21,                                     ! Day of Month
  2,                                      ! Month
  WinterDesignDay,                        ! Day Type
  0,                                      ! Daylight Saving Time Indicator
  Wetbulb,                                ! Humidity Indicating Type
  ,                                       ! Humidity Indicating Day Schedule Name
  DefaultMultipliers,                     ! Dry-Bulb Temperature Range Modifier Type
  ,                                       ! Dry-Bulb Temperature Range Modifier Schedule Name
  ASHRAEClearSky;                         ! Solar Model Indicator

OS:ComponentData,
  {31f926c2-d6bd-472a-82dd-3bf05ff7093b}, ! Handle
  Component Data 1,                       ! Name
  {89729054-5f35-4457-8165-be6b1c4b4455}, ! UUID
  {2b1ec020-270e-40f6-a866-1a724f59bcef}, ! Version UUID
  1366305576,                             ! Creation Timestamp
  1366305576,                             ! Version Timestamp
  {9fc04d47-4ec5-48f8-8052-e08fcf7c28f3}; ! Name of Object 1

