
OS:Version,
  {5f22e368-5159-429b-b22f-3c847750dc3f}, ! Handle
  0.9.3;                                  ! Version Identifier

OS:SizingPeriod:DesignDay,
  {1dec0aac-059e-48f1-8ca8-ff7134d23048}, ! Handle
  NEWARK Ann Hum_n 99% Condns DP=>MCDB,   ! Name
  -7,                                     ! Maximum Dry-Bulb Temperature {C}
  0,                                      ! Daily Dry-Bulb Temperature Range {deltaC}
  -18.6,                                  ! Humidity Indicating Conditions at Maximum Dry-Bulb {BasedOnField A3}
  101217,                                 ! Barometric Pressure {Pa}
  6.2,                                    ! Wind Speed {m/s}
  320,                                    ! Wind Direction {deg}
  0,                                      ! Sky Clearness
  0,                                      ! Rain Indicator
  0,                                      ! Snow Indicator
  21,                                     ! Day of Month
  1,                                      ! Month
  WinterDesignDay,                        ! Day Type
  0,                                      ! Daylight Saving Time Indicator
  Dewpoint,                               ! Humidity Indicating Type
  ,                                       ! Humidity Indicating Day Schedule Name
  DefaultMultipliers,                     ! Dry-Bulb Temperature Range Modifier Type
  ,                                       ! Dry-Bulb Temperature Range Modifier Schedule Name
  ASHRAEClearSky;                         ! Solar Model Indicator

OS:ComponentData,
  {41ac2976-af1e-44c9-9c1f-673cd8d5b5c1}, ! Handle
  Component Data 1,                       ! Name
  {a49857d0-6a02-436c-ae25-d3559f62b536}, ! UUID
  {2985b9e2-9591-4a41-825b-3e4f22808fe8}, ! Version UUID
  1366309327,                             ! Creation Timestamp
  1366309327,                             ! Version Timestamp
  {1dec0aac-059e-48f1-8ca8-ff7134d23048}; ! Name of Object 1

