
OS:Version,
  {04dc36db-6996-45ea-bab8-34064e7e1012}, ! Handle
  0.9.3;                                  ! Version Identifier

OS:SizingPeriod:DesignDay,
  {64b87525-e10c-4b84-a31e-ab888961bf15}, ! Handle
  Myrtle Beach Afb Ann Clg 2% Condns DB=>MWB, ! Name
  31.2,                                   ! Maximum Dry-Bulb Temperature {C}
  7.8,                                    ! Daily Dry-Bulb Temperature Range {deltaC}
  25.4,                                   ! Humidity Indicating Conditions at Maximum Dry-Bulb {BasedOnField A3}
  101229,                                 ! Barometric Pressure {Pa}
  3.6,                                    ! Wind Speed {m/s}
  180,                                    ! Wind Direction {deg}
  0,                                      ! Sky Clearness
  0,                                      ! Rain Indicator
  0,                                      ! Snow Indicator
  21,                                     ! Day of Month
  7,                                      ! Month
  SummerDesignDay,                        ! Day Type
  0,                                      ! Daylight Saving Time Indicator
  Wetbulb,                                ! Humidity Indicating Type
  ,                                       ! Humidity Indicating Day Schedule Name
  DefaultMultipliers,                     ! Dry-Bulb Temperature Range Modifier Type
  ,                                       ! Dry-Bulb Temperature Range Modifier Schedule Name
  ASHRAETau,                              ! Solar Model Indicator
  ,                                       ! Beam Solar Day Schedule Name
  ,                                       ! Diffuse Solar Day Schedule Name
  0.573,                                  ! ASHRAE Taub {dimensionless}
  1.77;                                   ! ASHRAE Taud {dimensionless}

OS:ComponentData,
  {4e5701bd-bd4f-41b7-88d3-463a6bb8e835}, ! Handle
  Component Data 1,                       ! Name
  {91d6b400-aa4b-41fc-b449-036c3146da3b}, ! UUID
  {3cf79fb2-cf74-444c-b9ac-f135e5b8d6fa}, ! Version UUID
  1366310373,                             ! Creation Timestamp
  1366310373,                             ! Version Timestamp
  {64b87525-e10c-4b84-a31e-ab888961bf15}; ! Name of Object 1

