
OS:Version,
  {6495c0af-e2df-4b82-80ed-9290cfbbdb98}, ! Handle
  0.9.3;                                  ! Version Identifier

OS:SizingPeriod:DesignDay,
  {09c09f7d-305a-4280-81d0-ef7a9a9e7a8c}, ! Handle
  Stampede Pass Ann Clg .4% Condns Enth=>MDB, ! Name
  23.1,                                   ! Maximum Dry-Bulb Temperature {C}
  9,                                      ! Daily Dry-Bulb Temperature Range {deltaC}
  48700,                                  ! Humidity Indicating Conditions at Maximum Dry-Bulb {BasedOnField A3}
  87651,                                  ! Barometric Pressure {Pa}
  3.1,                                    ! Wind Speed {m/s}
  240,                                    ! Wind Direction {deg}
  0,                                      ! Sky Clearness
  0,                                      ! Rain Indicator
  0,                                      ! Snow Indicator
  21,                                     ! Day of Month
  8,                                      ! Month
  SummerDesignDay,                        ! Day Type
  0,                                      ! Daylight Saving Time Indicator
  Enthalpy,                               ! Humidity Indicating Type
  ,                                       ! Humidity Indicating Day Schedule Name
  DefaultMultipliers,                     ! Dry-Bulb Temperature Range Modifier Type
  ,                                       ! Dry-Bulb Temperature Range Modifier Schedule Name
  ASHRAETau,                              ! Solar Model Indicator
  ,                                       ! Beam Solar Day Schedule Name
  ,                                       ! Diffuse Solar Day Schedule Name
  0.327,                                  ! ASHRAE Taub {dimensionless}
  2.585;                                  ! ASHRAE Taud {dimensionless}

OS:ComponentData,
  {6641734a-ad78-41ec-9a83-881bd6eb9483}, ! Handle
  Component Data 1,                       ! Name
  {22a0959a-0a1f-4f70-b5d5-ae24f177fe40}, ! UUID
  {95ecf364-cf06-4d53-9ac1-010348e92fbc}, ! Version UUID
  1366311402,                             ! Creation Timestamp
  1366311402,                             ! Version Timestamp
  {09c09f7d-305a-4280-81d0-ef7a9a9e7a8c}; ! Name of Object 1

