
OS:Version,
  {074cda11-0ec9-46b8-a5a6-72d5bbd6e071}, ! Handle
  0.9.3;                                  ! Version Identifier

OS:SizingPeriod:DesignDay,
  {c179090e-7438-4d3b-a4b8-eb0b83bc41d2}, ! Handle
  Olympia Ann Clg .4% Condns DB=>MWB,     ! Name
  30.7,                                   ! Maximum Dry-Bulb Temperature {C}
  14.6,                                   ! Daily Dry-Bulb Temperature Range {deltaC}
  18.9,                                   ! Humidity Indicating Conditions at Maximum Dry-Bulb {BasedOnField A3}
  100594,                                 ! Barometric Pressure {Pa}
  3.4,                                    ! Wind Speed {m/s}
  20,                                     ! Wind Direction {deg}
  0,                                      ! Sky Clearness
  0,                                      ! Rain Indicator
  0,                                      ! Snow Indicator
  21,                                     ! Day of Month
  8,                                      ! Month
  SummerDesignDay,                        ! Day Type
  0,                                      ! Daylight Saving Time Indicator
  Wetbulb,                                ! Humidity Indicating Type
  ,                                       ! Humidity Indicating Day Schedule Name
  DefaultMultipliers,                     ! Dry-Bulb Temperature Range Modifier Type
  ,                                       ! Dry-Bulb Temperature Range Modifier Schedule Name
  ASHRAETau,                              ! Solar Model Indicator
  ,                                       ! Beam Solar Day Schedule Name
  ,                                       ! Diffuse Solar Day Schedule Name
  0.359,                                  ! ASHRAE Taub {dimensionless}
  2.536;                                  ! ASHRAE Taud {dimensionless}

OS:ComponentData,
  {fb095c90-7573-4ce1-b801-4e9fd0647167}, ! Handle
  Component Data 1,                       ! Name
  {16ff87a7-f356-47b7-94c1-9023894699a0}, ! UUID
  {22a37be7-f3df-4ce6-9773-9f9b43d305ca}, ! Version UUID
  1366311309,                             ! Creation Timestamp
  1366311309,                             ! Version Timestamp
  {c179090e-7438-4d3b-a4b8-eb0b83bc41d2}; ! Name of Object 1

