
OS:Version,
  {50cde84d-8e4c-4581-9512-7ae36df382e3}, ! Handle
  0.9.3;                                  ! Version Identifier

OS:SizingPeriod:DesignDay,
  {c34c52b8-241a-4264-93a9-c5c2c7f51f46}, ! Handle
  Reno Tahoe International Ap Ann Htg 99.6% Condns DB, ! Name
  -11.2,                                  ! Maximum Dry-Bulb Temperature {C}
  0,                                      ! Daily Dry-Bulb Temperature Range {deltaC}
  -11.2,                                  ! Humidity Indicating Conditions at Maximum Dry-Bulb {BasedOnField A3}
  86208,                                  ! Barometric Pressure {Pa}
  1.2,                                    ! Wind Speed {m/s}
  180,                                    ! Wind Direction {deg}
  0,                                      ! Sky Clearness
  0,                                      ! Rain Indicator
  0,                                      ! Snow Indicator
  21,                                     ! Day of Month
  1,                                      ! Month
  WinterDesignDay,                        ! Day Type
  0,                                      ! Daylight Saving Time Indicator
  Wetbulb,                                ! Humidity Indicating Type
  ,                                       ! Humidity Indicating Day Schedule Name
  DefaultMultipliers,                     ! Dry-Bulb Temperature Range Modifier Type
  ,                                       ! Dry-Bulb Temperature Range Modifier Schedule Name
  ASHRAEClearSky;                         ! Solar Model Indicator

OS:ComponentData,
  {6acc48a3-900d-4bde-9b58-1e8a4d5adede}, ! Handle
  Component Data 1,                       ! Name
  {035883bb-91aa-4844-9b2f-34baa3013689}, ! UUID
  {ad6b6284-1f95-451e-8f79-49ca87413007}, ! Version UUID
  1366309534,                             ! Creation Timestamp
  1366309534,                             ! Version Timestamp
  {c34c52b8-241a-4264-93a9-c5c2c7f51f46}; ! Name of Object 1

