
OS:Version,
  {58e421c5-dea3-473d-8469-cf816977fd5a}, ! Handle
  0.9.3;                                  ! Version Identifier

OS:SizingPeriod:DesignDay,
  {ee792cd7-7f07-472c-84be-a71e950899ee}, ! Handle
  Orlando Ann Clg 1% Condns DB=>MWB,      ! Name
  33.7,                                   ! Maximum Dry-Bulb Temperature {C}
  8.8,                                    ! Daily Dry-Bulb Temperature Range {deltaC}
  24.4,                                   ! Humidity Indicating Conditions at Maximum Dry-Bulb {BasedOnField A3}
  100941,                                 ! Barometric Pressure {Pa}
  3.7,                                    ! Wind Speed {m/s}
  270,                                    ! Wind Direction {deg}
  0,                                      ! Sky Clearness
  0,                                      ! Rain Indicator
  0,                                      ! Snow Indicator
  21,                                     ! Day of Month
  7,                                      ! Month
  SummerDesignDay,                        ! Day Type
  0,                                      ! Daylight Saving Time Indicator
  Wetbulb,                                ! Humidity Indicating Type
  ,                                       ! Humidity Indicating Day Schedule Name
  DefaultMultipliers,                     ! Dry-Bulb Temperature Range Modifier Type
  ,                                       ! Dry-Bulb Temperature Range Modifier Schedule Name
  ASHRAETau,                              ! Solar Model Indicator
  ,                                       ! Beam Solar Day Schedule Name
  ,                                       ! Diffuse Solar Day Schedule Name
  0.516,                                  ! ASHRAE Taub {dimensionless}
  1.924;                                  ! ASHRAE Taud {dimensionless}

OS:ComponentData,
  {7f008ae0-5dba-4aaf-b0aa-efc7b41c2cfe}, ! Handle
  Component Data 1,                       ! Name
  {e0fe0ce2-bd7d-4cb8-899e-0788effd4b2c}, ! UUID
  {e4d96dd6-7682-40dc-9bfe-596b2cce5ccf}, ! Version UUID
  1366306888,                             ! Creation Timestamp
  1366306888,                             ! Version Timestamp
  {ee792cd7-7f07-472c-84be-a71e950899ee}; ! Name of Object 1

