
OS:Version,
  {0fe5846e-fade-4466-a018-6b09eca7b6ec}, ! Handle
  0.9.3;                                  ! Version Identifier

OS:SizingPeriod:DesignDay,
  {32c29d88-54f9-43ae-8a5f-23423f0e6cb6}, ! Handle
  WEST_PALM Ann Clg 2% Condns Enth=>MDB,  ! Name
  30.3,                                   ! Maximum Dry-Bulb Temperature {C}
  7.3,                                    ! Daily Dry-Bulb Temperature Range {deltaC}
  80400,                                  ! Humidity Indicating Conditions at Maximum Dry-Bulb {BasedOnField A3}
  101253,                                 ! Barometric Pressure {Pa}
  5.2,                                    ! Wind Speed {m/s}
  130,                                    ! Wind Direction {deg}
  0,                                      ! Sky Clearness
  0,                                      ! Rain Indicator
  0,                                      ! Snow Indicator
  21,                                     ! Day of Month
  8,                                      ! Month
  SummerDesignDay,                        ! Day Type
  0,                                      ! Daylight Saving Time Indicator
  Enthalpy,                               ! Humidity Indicating Type
  ,                                       ! Humidity Indicating Day Schedule Name
  DefaultMultipliers,                     ! Dry-Bulb Temperature Range Modifier Type
  ,                                       ! Dry-Bulb Temperature Range Modifier Schedule Name
  ASHRAETau,                              ! Solar Model Indicator
  ,                                       ! Beam Solar Day Schedule Name
  ,                                       ! Diffuse Solar Day Schedule Name
  0.497,                                  ! ASHRAE Taub {dimensionless}
  2.018;                                  ! ASHRAE Taud {dimensionless}

