
OS:Version,
  {18202bf0-0170-4d28-b934-3d8d9b51eb18}, ! Handle
  0.9.3;                                  ! Version Identifier

OS:SizingPeriod:DesignDay,
  {aae7f64e-4177-4f9e-bbd6-1a0a191b46d1}, ! Handle
  Portland Intl Jetport Ann Clg 1% Condns WB=>MDB, ! Name
  26.7,                                   ! Maximum Dry-Bulb Temperature {C}
  10,                                     ! Daily Dry-Bulb Temperature Range {deltaC}
  22.2,                                   ! Humidity Indicating Conditions at Maximum Dry-Bulb {BasedOnField A3}
  101157,                                 ! Barometric Pressure {Pa}
  4.9,                                    ! Wind Speed {m/s}
  260,                                    ! Wind Direction {deg}
  0,                                      ! Sky Clearness
  0,                                      ! Rain Indicator
  0,                                      ! Snow Indicator
  21,                                     ! Day of Month
  7,                                      ! Month
  SummerDesignDay,                        ! Day Type
  0,                                      ! Daylight Saving Time Indicator
  Wetbulb,                                ! Humidity Indicating Type
  ,                                       ! Humidity Indicating Day Schedule Name
  DefaultMultipliers,                     ! Dry-Bulb Temperature Range Modifier Type
  ,                                       ! Dry-Bulb Temperature Range Modifier Schedule Name
  ASHRAETau,                              ! Solar Model Indicator
  ,                                       ! Beam Solar Day Schedule Name
  ,                                       ! Diffuse Solar Day Schedule Name
  0.477,                                  ! ASHRAE Taub {dimensionless}
  1.97;                                   ! ASHRAE Taud {dimensionless}

OS:ComponentData,
  {31da1085-b47d-44ea-8340-cb20f4cb623d}, ! Handle
  Component Data 1,                       ! Name
  {0692010d-33f0-4006-9430-4f37f4f0da07}, ! UUID
  {38c5c84e-4027-4b83-9076-86e7689042cc}, ! Version UUID
  1366307915,                             ! Creation Timestamp
  1366307915,                             ! Version Timestamp
  {aae7f64e-4177-4f9e-bbd6-1a0a191b46d1}; ! Name of Object 1

