
OS:Version,
  {68aac816-e919-4e95-8527-bd341fc77dad}, ! Handle
  0.9.3;                                  ! Version Identifier

OS:SizingPeriod:DesignDay,
  {32ad1689-1e8c-4586-b1e1-1309c49180ba}, ! Handle
  Ogden Hill Afb Ann Htg Wind 99% Condns WS=>MCDB, ! Name
  -1.1,                                   ! Maximum Dry-Bulb Temperature {C}
  0,                                      ! Daily Dry-Bulb Temperature Range {deltaC}
  -1.1,                                   ! Humidity Indicating Conditions at Maximum Dry-Bulb {BasedOnField A3}
  84982,                                  ! Barometric Pressure {Pa}
  10.9,                                   ! Wind Speed {m/s}
  100,                                    ! Wind Direction {deg}
  0,                                      ! Sky Clearness
  0,                                      ! Rain Indicator
  0,                                      ! Snow Indicator
  21,                                     ! Day of Month
  1,                                      ! Month
  WinterDesignDay,                        ! Day Type
  0,                                      ! Daylight Saving Time Indicator
  Wetbulb,                                ! Humidity Indicating Type
  ,                                       ! Humidity Indicating Day Schedule Name
  DefaultMultipliers,                     ! Dry-Bulb Temperature Range Modifier Type
  ,                                       ! Dry-Bulb Temperature Range Modifier Schedule Name
  ASHRAEClearSky;                         ! Solar Model Indicator

OS:ComponentData,
  {1a1c4024-9fe8-40a6-b21d-e993ee619efd}, ! Handle
  Component Data 1,                       ! Name
  {4ddebf4e-7e24-4458-96af-f9031d143454}, ! UUID
  {51dbaa25-850e-4080-993e-57d9991fefb8}, ! Version UUID
  1366310969,                             ! Creation Timestamp
  1366310969,                             ! Version Timestamp
  {32ad1689-1e8c-4586-b1e1-1309c49180ba}; ! Name of Object 1

