
OS:Version,
  {9e09c397-6756-43fc-ae91-362bc73d7d44}, ! Handle
  0.9.3;                                  ! Version Identifier

OS:SizingPeriod:DesignDay,
  {dd98849d-b19c-4683-bbe0-62a9679017ea}, ! Handle
  Moline Quad City Intl Ap Ann Clg 1% Condns DB=>MWB, ! Name
  32.6,                                   ! Maximum Dry-Bulb Temperature {C}
  11.1,                                   ! Daily Dry-Bulb Temperature Range {deltaC}
  24,                                     ! Humidity Indicating Conditions at Maximum Dry-Bulb {BasedOnField A3}
  99181,                                  ! Barometric Pressure {Pa}
  4.9,                                    ! Wind Speed {m/s}
  210,                                    ! Wind Direction {deg}
  0,                                      ! Sky Clearness
  0,                                      ! Rain Indicator
  0,                                      ! Snow Indicator
  21,                                     ! Day of Month
  7,                                      ! Month
  SummerDesignDay,                        ! Day Type
  0,                                      ! Daylight Saving Time Indicator
  Wetbulb,                                ! Humidity Indicating Type
  ,                                       ! Humidity Indicating Day Schedule Name
  DefaultMultipliers,                     ! Dry-Bulb Temperature Range Modifier Type
  ,                                       ! Dry-Bulb Temperature Range Modifier Schedule Name
  ASHRAETau,                              ! Solar Model Indicator
  ,                                       ! Beam Solar Day Schedule Name
  ,                                       ! Diffuse Solar Day Schedule Name
  0.449,                                  ! ASHRAE Taub {dimensionless}
  2.068;                                  ! ASHRAE Taud {dimensionless}

OS:ComponentData,
  {b9a088ba-fbb6-464c-aa9f-3c3d2a8153b4}, ! Handle
  Component Data 1,                       ! Name
  {a31f359e-b045-4f50-af7e-cde185788fd7}, ! UUID
  {e3d10a75-4e8c-45ed-8c42-0633bc21a6af}, ! Version UUID
  1366307368,                             ! Creation Timestamp
  1366307368,                             ! Version Timestamp
  {dd98849d-b19c-4683-bbe0-62a9679017ea}; ! Name of Object 1

