
OS:Version,
  {b1422ff6-206d-4493-afc2-9892d2720dbd}, ! Handle
  0.9.3;                                  ! Version Identifier

OS:SizingPeriod:DesignDay,
  {0201032c-e6e2-4da3-badb-4eff47afe112}, ! Handle
  Wittman Rgnl Ann Clg .4% Condns DP=>MDB, ! Name
  27.4,                                   ! Maximum Dry-Bulb Temperature {C}
  10.5,                                   ! Daily Dry-Bulb Temperature Range {deltaC}
  22.9,                                   ! Humidity Indicating Conditions at Maximum Dry-Bulb {BasedOnField A3}
  98322,                                  ! Barometric Pressure {Pa}
  4.8,                                    ! Wind Speed {m/s}
  210,                                    ! Wind Direction {deg}
  0,                                      ! Sky Clearness
  0,                                      ! Rain Indicator
  0,                                      ! Snow Indicator
  21,                                     ! Day of Month
  7,                                      ! Month
  SummerDesignDay,                        ! Day Type
  0,                                      ! Daylight Saving Time Indicator
  Dewpoint,                               ! Humidity Indicating Type
  ,                                       ! Humidity Indicating Day Schedule Name
  DefaultMultipliers,                     ! Dry-Bulb Temperature Range Modifier Type
  ,                                       ! Dry-Bulb Temperature Range Modifier Schedule Name
  ASHRAETau,                              ! Solar Model Indicator
  ,                                       ! Beam Solar Day Schedule Name
  ,                                       ! Diffuse Solar Day Schedule Name
  0.433,                                  ! ASHRAE Taub {dimensionless}
  2.113;                                  ! ASHRAE Taud {dimensionless}

OS:ComponentData,
  {8d38103e-8e88-43c4-af6b-4813b3076950}, ! Handle
  Component Data 1,                       ! Name
  {9c43704a-9a4d-4dc8-a67e-f2528a846692}, ! UUID
  {c8df7f1f-d3b6-4bd9-9d95-77a1c9adb8ff}, ! Version UUID
  1366311604,                             ! Creation Timestamp
  1366311604,                             ! Version Timestamp
  {0201032c-e6e2-4da3-badb-4eff47afe112}; ! Name of Object 1

