
OS:Version,
  {549f9ec2-4946-4348-abe1-d3574b463cc2}, ! Handle
  0.9.3;                                  ! Version Identifier

OS:SizingPeriod:DesignDay,
  {96cda64c-f9b7-4392-9a65-1901d2cfdb01}, ! Handle
  Raleigh Durham International Ann Clg 2% Condns DB=>MWB, ! Name
  31.9,                                   ! Maximum Dry-Bulb Temperature {C}
  10.5,                                   ! Daily Dry-Bulb Temperature Range {deltaC}
  23.6,                                   ! Humidity Indicating Conditions at Maximum Dry-Bulb {BasedOnField A3}
  99809,                                  ! Barometric Pressure {Pa}
  4,                                      ! Wind Speed {m/s}
  240,                                    ! Wind Direction {deg}
  0,                                      ! Sky Clearness
  0,                                      ! Rain Indicator
  0,                                      ! Snow Indicator
  21,                                     ! Day of Month
  7,                                      ! Month
  SummerDesignDay,                        ! Day Type
  0,                                      ! Daylight Saving Time Indicator
  Wetbulb,                                ! Humidity Indicating Type
  ,                                       ! Humidity Indicating Day Schedule Name
  DefaultMultipliers,                     ! Dry-Bulb Temperature Range Modifier Type
  ,                                       ! Dry-Bulb Temperature Range Modifier Schedule Name
  ASHRAETau,                              ! Solar Model Indicator
  ,                                       ! Beam Solar Day Schedule Name
  ,                                       ! Diffuse Solar Day Schedule Name
  0.577,                                  ! ASHRAE Taub {dimensionless}
  1.722;                                  ! ASHRAE Taud {dimensionless}

OS:ComponentData,
  {33505a9c-a58f-4af6-a1aa-73c9d368bd46}, ! Handle
  Component Data 1,                       ! Name
  {964541cd-a262-46a3-8a4e-2d7c7fb919e2}, ! UUID
  {e1674643-f897-4c40-aad3-bbca3a6f124b}, ! Version UUID
  1366308973,                             ! Creation Timestamp
  1366308973,                             ! Version Timestamp
  {96cda64c-f9b7-4392-9a65-1901d2cfdb01}; ! Name of Object 1

