
OS:Version,
  {49573ec1-938f-4412-b204-de889ab5fbaa}, ! Handle
  0.9.3;                                  ! Version Identifier

OS:SizingPeriod:DesignDay,
  {70a4bb2b-8318-4dbc-9706-16cf95436300}, ! Handle
  WORCESTER Ann Clg .4% Condns Enth=>MDB, ! Name
  27.8,                                   ! Maximum Dry-Bulb Temperature {C}
  9,                                      ! Daily Dry-Bulb Temperature Range {deltaC}
  71200,                                  ! Humidity Indicating Conditions at Maximum Dry-Bulb {BasedOnField A3}
  97761,                                  ! Barometric Pressure {Pa}
  4.6,                                    ! Wind Speed {m/s}
  270,                                    ! Wind Direction {deg}
  0,                                      ! Sky Clearness
  0,                                      ! Rain Indicator
  0,                                      ! Snow Indicator
  21,                                     ! Day of Month
  7,                                      ! Month
  SummerDesignDay,                        ! Day Type
  0,                                      ! Daylight Saving Time Indicator
  Enthalpy,                               ! Humidity Indicating Type
  ,                                       ! Humidity Indicating Day Schedule Name
  DefaultMultipliers,                     ! Dry-Bulb Temperature Range Modifier Type
  ,                                       ! Dry-Bulb Temperature Range Modifier Schedule Name
  ASHRAETau,                              ! Solar Model Indicator
  ,                                       ! Beam Solar Day Schedule Name
  ,                                       ! Diffuse Solar Day Schedule Name
  0.454,                                  ! ASHRAE Taub {dimensionless}
  2.026;                                  ! ASHRAE Taud {dimensionless}

OS:ComponentData,
  {e26f4a4e-bf60-44e7-91fb-7c39519d6c29}, ! Handle
  Component Data 1,                       ! Name
  {57488dd4-2ac9-454f-afd3-4f5648a58f5b}, ! UUID
  {7128fa53-04db-453d-b6cd-14817feab9b7}, ! Version UUID
  1366307827,                             ! Creation Timestamp
  1366307827,                             ! Version Timestamp
  {70a4bb2b-8318-4dbc-9706-16cf95436300}; ! Name of Object 1

