
OS:Version,
  {d4294363-cad7-4bde-8597-9fd70b98d84b}, ! Handle
  0.9.3;                                  ! Version Identifier

OS:SizingPeriod:DesignDay,
  {518b8413-a175-4530-b333-1289807c6d1b}, ! Handle
  Sacramento Executive Arpt Ann Clg .4% Condns DP=>MDB, ! Name
  29.1,                                   ! Maximum Dry-Bulb Temperature {C}
  18.1,                                   ! Daily Dry-Bulb Temperature Range {deltaC}
  17.7,                                   ! Humidity Indicating Conditions at Maximum Dry-Bulb {BasedOnField A3}
  101265,                                 ! Barometric Pressure {Pa}
  3.4,                                    ! Wind Speed {m/s}
  220,                                    ! Wind Direction {deg}
  0,                                      ! Sky Clearness
  0,                                      ! Rain Indicator
  0,                                      ! Snow Indicator
  21,                                     ! Day of Month
  7,                                      ! Month
  SummerDesignDay,                        ! Day Type
  0,                                      ! Daylight Saving Time Indicator
  Dewpoint,                               ! Humidity Indicating Type
  ,                                       ! Humidity Indicating Day Schedule Name
  DefaultMultipliers,                     ! Dry-Bulb Temperature Range Modifier Type
  ,                                       ! Dry-Bulb Temperature Range Modifier Schedule Name
  ASHRAETau,                              ! Solar Model Indicator
  ,                                       ! Beam Solar Day Schedule Name
  ,                                       ! Diffuse Solar Day Schedule Name
  0.382,                                  ! ASHRAE Taub {dimensionless}
  2.325;                                  ! ASHRAE Taud {dimensionless}

OS:ComponentData,
  {06622e88-5906-45e8-956d-d6006d6c4126}, ! Handle
  Component Data 1,                       ! Name
  {94efcf23-2263-4b1f-b301-e99f455a6b19}, ! UUID
  {9a8ba728-0e64-4ec0-aa55-071426d26627}, ! Version UUID
  1366306564,                             ! Creation Timestamp
  1366306564,                             ! Version Timestamp
  {518b8413-a175-4530-b333-1289807c6d1b}; ! Name of Object 1

