
OS:Version,
  {fe542aa2-707c-466e-a179-55b699640af8}, ! Handle
  0.9.3;                                  ! Version Identifier

OS:SizingPeriod:DesignDay,
  {10527d84-3e4b-4e83-b457-7951d807bc9c}, ! Handle
  Roanoke Regional Ap Ann Clg .4% Condns DB=>MWB, ! Name
  33.4,                                   ! Maximum Dry-Bulb Temperature {C}
  10.6,                                   ! Daily Dry-Bulb Temperature Range {deltaC}
  22.7,                                   ! Humidity Indicating Conditions at Maximum Dry-Bulb {BasedOnField A3}
  97190,                                  ! Barometric Pressure {Pa}
  4,                                      ! Wind Speed {m/s}
  280,                                    ! Wind Direction {deg}
  0,                                      ! Sky Clearness
  0,                                      ! Rain Indicator
  0,                                      ! Snow Indicator
  21,                                     ! Day of Month
  7,                                      ! Month
  SummerDesignDay,                        ! Day Type
  0,                                      ! Daylight Saving Time Indicator
  Wetbulb,                                ! Humidity Indicating Type
  ,                                       ! Humidity Indicating Day Schedule Name
  DefaultMultipliers,                     ! Dry-Bulb Temperature Range Modifier Type
  ,                                       ! Dry-Bulb Temperature Range Modifier Schedule Name
  ASHRAETau,                              ! Solar Model Indicator
  ,                                       ! Beam Solar Day Schedule Name
  ,                                       ! Diffuse Solar Day Schedule Name
  0.529,                                  ! ASHRAE Taub {dimensionless}
  1.818;                                  ! ASHRAE Taud {dimensionless}

OS:ComponentData,
  {60975c6e-b274-463c-b47b-eab37382b18a}, ! Handle
  Component Data 1,                       ! Name
  {f8cc65a9-3e94-425a-87fe-c46a60a25977}, ! UUID
  {0bff61a1-9fe8-4746-a689-c928de692c14}, ! Version UUID
  1366311191,                             ! Creation Timestamp
  1366311191,                             ! Version Timestamp
  {10527d84-3e4b-4e83-b457-7951d807bc9c}; ! Name of Object 1

