
OS:Version,
  {d756cf92-aaad-47ee-973d-8b86e80aca49}, ! Handle
  0.9.3;                                  ! Version Identifier

OS:SizingPeriod:DesignDay,
  {0a19b89a-1b60-4d0d-8d87-b52adf14b8a4}, ! Handle
  Pasco Ann Clg 1% Condns DB=>MWB,        ! Name
  35.8,                                   ! Maximum Dry-Bulb Temperature {C}
  17.8,                                   ! Daily Dry-Bulb Temperature Range {deltaC}
  20.3,                                   ! Humidity Indicating Conditions at Maximum Dry-Bulb {BasedOnField A3}
  99702,                                  ! Barometric Pressure {Pa}
  3.1,                                    ! Wind Speed {m/s}
  330,                                    ! Wind Direction {deg}
  0,                                      ! Sky Clearness
  0,                                      ! Rain Indicator
  0,                                      ! Snow Indicator
  21,                                     ! Day of Month
  7,                                      ! Month
  SummerDesignDay,                        ! Day Type
  0,                                      ! Daylight Saving Time Indicator
  Wetbulb,                                ! Humidity Indicating Type
  ,                                       ! Humidity Indicating Day Schedule Name
  DefaultMultipliers,                     ! Dry-Bulb Temperature Range Modifier Type
  ,                                       ! Dry-Bulb Temperature Range Modifier Schedule Name
  ASHRAETau,                              ! Solar Model Indicator
  ,                                       ! Beam Solar Day Schedule Name
  ,                                       ! Diffuse Solar Day Schedule Name
  0.398,                                  ! ASHRAE Taub {dimensionless}
  2.219;                                  ! ASHRAE Taud {dimensionless}

