
OS:Version,
  {705c388d-6c3f-483a-80ba-e0e14fba0356}, ! Handle
  0.9.3;                                  ! Version Identifier

OS:SizingPeriod:DesignDay,
  {23221f19-fff8-4a71-8324-e249fd8b9835}, ! Handle
  Meridian Key Field Ann Clg 1% Condns DB=>MWB, ! Name
  34.2,                                   ! Maximum Dry-Bulb Temperature {C}
  11.4,                                   ! Daily Dry-Bulb Temperature Range {deltaC}
  24.5,                                   ! Humidity Indicating Conditions at Maximum Dry-Bulb {BasedOnField A3}
  100248,                                 ! Barometric Pressure {Pa}
  3.2,                                    ! Wind Speed {m/s}
  0,                                      ! Wind Direction {deg}
  0,                                      ! Sky Clearness
  0,                                      ! Rain Indicator
  0,                                      ! Snow Indicator
  21,                                     ! Day of Month
  7,                                      ! Month
  SummerDesignDay,                        ! Day Type
  0,                                      ! Daylight Saving Time Indicator
  Wetbulb,                                ! Humidity Indicating Type
  ,                                       ! Humidity Indicating Day Schedule Name
  DefaultMultipliers,                     ! Dry-Bulb Temperature Range Modifier Type
  ,                                       ! Dry-Bulb Temperature Range Modifier Schedule Name
  ASHRAETau,                              ! Solar Model Indicator
  ,                                       ! Beam Solar Day Schedule Name
  ,                                       ! Diffuse Solar Day Schedule Name
  0.552,                                  ! ASHRAE Taub {dimensionless}
  1.818;                                  ! ASHRAE Taud {dimensionless}

OS:ComponentData,
  {4fad08bc-754d-46df-a611-80b42c9c7588}, ! Handle
  Component Data 1,                       ! Name
  {6befaeac-2084-46b2-94c3-a9a2bca9270c}, ! UUID
  {9bb4c22f-7d67-47da-bc2b-069055b762b4}, ! Version UUID
  1366308667,                             ! Creation Timestamp
  1366308667,                             ! Version Timestamp
  {23221f19-fff8-4a71-8324-e249fd8b9835}; ! Name of Object 1

