
OS:Version,
  {9c4d8a58-5633-4133-8a34-7ca4ac0860d8}, ! Handle
  0.9.3;                                  ! Version Identifier

OS:SizingPeriod:DesignDay,
  {b534aa67-8c06-4978-9742-6a6d364d63ab}, ! Handle
  Pasco Ann Hum_n 99.6% Condns DP=>MCDB,  ! Name
  -12.5,                                  ! Maximum Dry-Bulb Temperature {C}
  0,                                      ! Daily Dry-Bulb Temperature Range {deltaC}
  -17.6,                                  ! Humidity Indicating Conditions at Maximum Dry-Bulb {BasedOnField A3}
  99702,                                  ! Barometric Pressure {Pa}
  2.5,                                    ! Wind Speed {m/s}
  310,                                    ! Wind Direction {deg}
  0,                                      ! Sky Clearness
  0,                                      ! Rain Indicator
  0,                                      ! Snow Indicator
  21,                                     ! Day of Month
  12,                                     ! Month
  WinterDesignDay,                        ! Day Type
  0,                                      ! Daylight Saving Time Indicator
  Dewpoint,                               ! Humidity Indicating Type
  ,                                       ! Humidity Indicating Day Schedule Name
  DefaultMultipliers,                     ! Dry-Bulb Temperature Range Modifier Type
  ,                                       ! Dry-Bulb Temperature Range Modifier Schedule Name
  ASHRAEClearSky;                         ! Solar Model Indicator

OS:ComponentData,
  {36d40ffe-8cc9-475a-b06c-4b81f419608b}, ! Handle
  Component Data 1,                       ! Name
  {83adbf5a-948d-4289-a57c-337162e5314e}, ! UUID
  {94e2ef7f-3128-497c-a5f2-6741feda94eb}, ! Version UUID
  1366311319,                             ! Creation Timestamp
  1366311319,                             ! Version Timestamp
  {b534aa67-8c06-4978-9742-6a6d364d63ab}; ! Name of Object 1

