
OS:Version,
  {7ef66b2f-d50b-4f8e-90cf-746e87227d4e}, ! Handle
  0.9.3;                                  ! Version Identifier

OS:SizingPeriod:DesignDay,
  {1614b1b8-1ed9-4cd6-80e0-898aae431415}, ! Handle
  Point Mugu Nf Ann Htg Wind 99.6% Condns WS=>MCDB, ! Name
  16.6,                                   ! Maximum Dry-Bulb Temperature {C}
  0,                                      ! Daily Dry-Bulb Temperature Range {deltaC}
  16.6,                                   ! Humidity Indicating Conditions at Maximum Dry-Bulb {BasedOnField A3}
  101289,                                 ! Barometric Pressure {Pa}
  12.9,                                   ! Wind Speed {m/s}
  20,                                     ! Wind Direction {deg}
  0,                                      ! Sky Clearness
  0,                                      ! Rain Indicator
  0,                                      ! Snow Indicator
  21,                                     ! Day of Month
  12,                                     ! Month
  WinterDesignDay,                        ! Day Type
  0,                                      ! Daylight Saving Time Indicator
  Wetbulb,                                ! Humidity Indicating Type
  ,                                       ! Humidity Indicating Day Schedule Name
  DefaultMultipliers,                     ! Dry-Bulb Temperature Range Modifier Type
  ,                                       ! Dry-Bulb Temperature Range Modifier Schedule Name
  ASHRAEClearSky;                         ! Solar Model Indicator

OS:ComponentData,
  {786e36d6-f7f0-4eed-ab72-04a2e8d0cd9a}, ! Handle
  Component Data 1,                       ! Name
  {e6c958bb-d40e-48c4-961e-0864db8680f0}, ! UUID
  {2df73a8a-2cb5-4085-9ad0-c60c41b8e999}, ! Version UUID
  1366306538,                             ! Creation Timestamp
  1366306538,                             ! Version Timestamp
  {1614b1b8-1ed9-4cd6-80e0-898aae431415}; ! Name of Object 1

