
OS:Version,
  {744a002c-4f54-41a4-9893-d537eda51cb7}, ! Handle
  0.9.3;                                  ! Version Identifier

OS:SizingPeriod:DesignDay,
  {62ad6ddd-83aa-417e-8c3b-d70adef95b5c}, ! Handle
  Spokane International Ap  Che Ann Clg 2% Condns WB=>MDB, ! Name
  27.8,                                   ! Maximum Dry-Bulb Temperature {C}
  14.6,                                   ! Daily Dry-Bulb Temperature Range {deltaC}
  16.7,                                   ! Humidity Indicating Conditions at Maximum Dry-Bulb {BasedOnField A3}
  92332,                                  ! Barometric Pressure {Pa}
  4.1,                                    ! Wind Speed {m/s}
  240,                                    ! Wind Direction {deg}
  0,                                      ! Sky Clearness
  0,                                      ! Rain Indicator
  0,                                      ! Snow Indicator
  21,                                     ! Day of Month
  7,                                      ! Month
  SummerDesignDay,                        ! Day Type
  0,                                      ! Daylight Saving Time Indicator
  Wetbulb,                                ! Humidity Indicating Type
  ,                                       ! Humidity Indicating Day Schedule Name
  DefaultMultipliers,                     ! Dry-Bulb Temperature Range Modifier Type
  ,                                       ! Dry-Bulb Temperature Range Modifier Schedule Name
  ASHRAETau,                              ! Solar Model Indicator
  ,                                       ! Beam Solar Day Schedule Name
  ,                                       ! Diffuse Solar Day Schedule Name
  0.354,                                  ! ASHRAE Taub {dimensionless}
  2.385;                                  ! ASHRAE Taud {dimensionless}

OS:ComponentData,
  {7f122239-738a-4210-af4f-6245d47d9a2d}, ! Handle
  Component Data 1,                       ! Name
  {d7a08ab5-85e6-4bed-bb28-5705769bb7c8}, ! UUID
  {8ec105a1-8a76-4a79-a93b-5cc8693deb08}, ! Version UUID
  1366311396,                             ! Creation Timestamp
  1366311396,                             ! Version Timestamp
  {62ad6ddd-83aa-417e-8c3b-d70adef95b5c}; ! Name of Object 1

