
OS:Version,
  {9e27ce66-0e01-40a1-a15a-16e394113a7e}, ! Handle
  0.9.3;                                  ! Version Identifier

OS:SizingPeriod:DesignDay,
  {82d08598-a35a-492f-afa4-f8d5346c0ea9}, ! Handle
  Montrose Co  Arpt Ann Clg 1% Condns WB=>MDB, ! Name
  27.4,                                   ! Maximum Dry-Bulb Temperature {C}
  16.9,                                   ! Daily Dry-Bulb Temperature Range {deltaC}
  17.1,                                   ! Humidity Indicating Conditions at Maximum Dry-Bulb {BasedOnField A3}
  81943,                                  ! Barometric Pressure {Pa}
  4.1,                                    ! Wind Speed {m/s}
  340,                                    ! Wind Direction {deg}
  0,                                      ! Sky Clearness
  0,                                      ! Rain Indicator
  0,                                      ! Snow Indicator
  21,                                     ! Day of Month
  7,                                      ! Month
  SummerDesignDay,                        ! Day Type
  0,                                      ! Daylight Saving Time Indicator
  Wetbulb,                                ! Humidity Indicating Type
  ,                                       ! Humidity Indicating Day Schedule Name
  DefaultMultipliers,                     ! Dry-Bulb Temperature Range Modifier Type
  ,                                       ! Dry-Bulb Temperature Range Modifier Schedule Name
  ASHRAETau,                              ! Solar Model Indicator
  ,                                       ! Beam Solar Day Schedule Name
  ,                                       ! Diffuse Solar Day Schedule Name
  0.4,                                    ! ASHRAE Taub {dimensionless}
  2.143;                                  ! ASHRAE Taud {dimensionless}

OS:ComponentData,
  {4b90b536-1a00-4971-85e2-801010216f39}, ! Handle
  Component Data 1,                       ! Name
  {eca6bd2c-0356-49a2-927e-ed08c78488a3}, ! UUID
  {3ce65219-e757-447b-8eee-13a8638488fe}, ! Version UUID
  1366306724,                             ! Creation Timestamp
  1366306724,                             ! Version Timestamp
  {82d08598-a35a-492f-afa4-f8d5346c0ea9}; ! Name of Object 1

