
OS:Version,
  {cf65a26d-a55b-4b6c-85cb-82594bb93276}, ! Handle
  0.9.3;                                  ! Version Identifier

OS:SizingPeriod:DesignDay,
  {cb29b33c-910d-4b57-a160-8ac7516f0c2e}, ! Handle
  San Antonio Stinson Ann Clg .4% Condns WB=>MDB, ! Name
  32,                                     ! Maximum Dry-Bulb Temperature {C}
  11.7,                                   ! Daily Dry-Bulb Temperature Range {deltaC}
  26.3,                                   ! Humidity Indicating Conditions at Maximum Dry-Bulb {BasedOnField A3}
  99228,                                  ! Barometric Pressure {Pa}
  4.4,                                    ! Wind Speed {m/s}
  130,                                    ! Wind Direction {deg}
  0,                                      ! Sky Clearness
  0,                                      ! Rain Indicator
  0,                                      ! Snow Indicator
  21,                                     ! Day of Month
  8,                                      ! Month
  SummerDesignDay,                        ! Day Type
  0,                                      ! Daylight Saving Time Indicator
  Wetbulb,                                ! Humidity Indicating Type
  ,                                       ! Humidity Indicating Day Schedule Name
  DefaultMultipliers,                     ! Dry-Bulb Temperature Range Modifier Type
  ,                                       ! Dry-Bulb Temperature Range Modifier Schedule Name
  ASHRAETau,                              ! Solar Model Indicator
  ,                                       ! Beam Solar Day Schedule Name
  ,                                       ! Diffuse Solar Day Schedule Name
  0.454,                                  ! ASHRAE Taub {dimensionless}
  2.127;                                  ! ASHRAE Taud {dimensionless}

OS:ComponentData,
  {b7648802-67c6-441f-a4b0-09bc8b1e99d7}, ! Handle
  Component Data 1,                       ! Name
  {4cbf2fb2-f410-4b23-b19f-c4ad5b43f466}, ! UUID
  {cb99fe58-4fdc-4303-aaee-bca7ee3bb9bc}, ! Version UUID
  1366310886,                             ! Creation Timestamp
  1366310886,                             ! Version Timestamp
  {cb29b33c-910d-4b57-a160-8ac7516f0c2e}; ! Name of Object 1

