
OS:Version,
  {1a3a6aef-e9b5-465a-b61e-2efc9c86f3b5}, ! Handle
  0.9.3;                                  ! Version Identifier

OS:SizingPeriod:DesignDay,
  {8491cad3-9aaf-4314-bef0-59bd98edfd9d}, ! Handle
  Rochester Ann Clg .4% Condns DP=>MDB,   ! Name
  27.7,                                   ! Maximum Dry-Bulb Temperature {C}
  10.6,                                   ! Daily Dry-Bulb Temperature Range {deltaC}
  23.5,                                   ! Humidity Indicating Conditions at Maximum Dry-Bulb {BasedOnField A3}
  96588,                                  ! Barometric Pressure {Pa}
  6.7,                                    ! Wind Speed {m/s}
  200,                                    ! Wind Direction {deg}
  0,                                      ! Sky Clearness
  0,                                      ! Rain Indicator
  0,                                      ! Snow Indicator
  21,                                     ! Day of Month
  7,                                      ! Month
  SummerDesignDay,                        ! Day Type
  0,                                      ! Daylight Saving Time Indicator
  Dewpoint,                               ! Humidity Indicating Type
  ,                                       ! Humidity Indicating Day Schedule Name
  DefaultMultipliers,                     ! Dry-Bulb Temperature Range Modifier Type
  ,                                       ! Dry-Bulb Temperature Range Modifier Schedule Name
  ASHRAETau,                              ! Solar Model Indicator
  ,                                       ! Beam Solar Day Schedule Name
  ,                                       ! Diffuse Solar Day Schedule Name
  0.404,                                  ! ASHRAE Taub {dimensionless}
  2.226;                                  ! ASHRAE Taud {dimensionless}

OS:ComponentData,
  {846c3ec7-c4e1-44a3-afb5-257839721193}, ! Handle
  Component Data 1,                       ! Name
  {2d1ffa8c-7202-48bf-8cb1-cfa360060cca}, ! UUID
  {e91cca7e-1b63-4916-bc68-6e4136479eae}, ! Version UUID
  1366308393,                             ! Creation Timestamp
  1366308393,                             ! Version Timestamp
  {8491cad3-9aaf-4314-bef0-59bd98edfd9d}; ! Name of Object 1

