
OS:Version,
  {b4bb7158-aaa9-4d44-85e3-5a9dbf7e37b3}, ! Handle
  0.9.3;                                  ! Version Identifier

OS:SizingPeriod:DesignDay,
  {1f70fccc-ecf9-4586-ba08-8f3a918481de}, ! Handle
  Yuma Mcas Ann Clg .4% Condns WB=>MDB,   ! Name
  36,                                     ! Maximum Dry-Bulb Temperature {C}
  13.1,                                   ! Daily Dry-Bulb Temperature Range {deltaC}
  26.6,                                   ! Humidity Indicating Conditions at Maximum Dry-Bulb {BasedOnField A3}
  100547,                                 ! Barometric Pressure {Pa}
  3.4,                                    ! Wind Speed {m/s}
  180,                                    ! Wind Direction {deg}
  0,                                      ! Sky Clearness
  0,                                      ! Rain Indicator
  0,                                      ! Snow Indicator
  21,                                     ! Day of Month
  7,                                      ! Month
  SummerDesignDay,                        ! Day Type
  0,                                      ! Daylight Saving Time Indicator
  Wetbulb,                                ! Humidity Indicating Type
  ,                                       ! Humidity Indicating Day Schedule Name
  DefaultMultipliers,                     ! Dry-Bulb Temperature Range Modifier Type
  ,                                       ! Dry-Bulb Temperature Range Modifier Schedule Name
  ASHRAETau,                              ! Solar Model Indicator
  ,                                       ! Beam Solar Day Schedule Name
  ,                                       ! Diffuse Solar Day Schedule Name
  0.533,                                  ! ASHRAE Taub {dimensionless}
  1.765;                                  ! ASHRAE Taud {dimensionless}

OS:ComponentData,
  {af455177-9156-45fe-ab8d-45616a31b330}, ! Handle
  Component Data 1,                       ! Name
  {e7eef904-2086-4dda-82d5-8fbc6b0614ae}, ! UUID
  {7b19ccf4-d63e-4da8-9c8f-8576751a9bfb}, ! Version UUID
  1366306341,                             ! Creation Timestamp
  1366306341,                             ! Version Timestamp
  {1f70fccc-ecf9-4586-ba08-8f3a918481de}; ! Name of Object 1

