
OS:Version,
  {7db0965e-d210-4c29-b51f-0d0c018caff1}, ! Handle
  0.9.3;                                  ! Version Identifier

OS:SizingPeriod:DesignDay,
  {0c02a2d4-d2c0-40c0-9dbe-4d253de99eeb}, ! Handle
  Mccomb Pike County Ap Ann Clg 1% Condns WB=>MDB, ! Name
  31,                                     ! Maximum Dry-Bulb Temperature {C}
  10.8,                                   ! Daily Dry-Bulb Temperature Range {deltaC}
  25.8,                                   ! Humidity Indicating Conditions at Maximum Dry-Bulb {BasedOnField A3}
  99820,                                  ! Barometric Pressure {Pa}
  2.9,                                    ! Wind Speed {m/s}
  250,                                    ! Wind Direction {deg}
  0,                                      ! Sky Clearness
  0,                                      ! Rain Indicator
  0,                                      ! Snow Indicator
  21,                                     ! Day of Month
  7,                                      ! Month
  SummerDesignDay,                        ! Day Type
  0,                                      ! Daylight Saving Time Indicator
  Wetbulb,                                ! Humidity Indicating Type
  ,                                       ! Humidity Indicating Day Schedule Name
  DefaultMultipliers,                     ! Dry-Bulb Temperature Range Modifier Type
  ,                                       ! Dry-Bulb Temperature Range Modifier Schedule Name
  ASHRAETau,                              ! Solar Model Indicator
  ,                                       ! Beam Solar Day Schedule Name
  ,                                       ! Diffuse Solar Day Schedule Name
  0.539,                                  ! ASHRAE Taub {dimensionless}
  1.852;                                  ! ASHRAE Taud {dimensionless}

OS:ComponentData,
  {13120894-128d-4548-b3df-43e028d916a7}, ! Handle
  Component Data 1,                       ! Name
  {8feff9c0-e39a-45ca-826c-9aaa33093740}, ! UUID
  {29c8b018-5c5d-41b1-b094-5dab2b291f32}, ! Version UUID
  1366308656,                             ! Creation Timestamp
  1366308656,                             ! Version Timestamp
  {0c02a2d4-d2c0-40c0-9dbe-4d253de99eeb}; ! Name of Object 1

