
OS:Version,
  {ad51fd81-9d08-4291-9254-993148ababcd}, ! Handle
  0.9.3;                                  ! Version Identifier

OS:SizingPeriod:DesignDay,
  {994b79c0-b05a-4f1a-aa29-3a687167e722}, ! Handle
  Oklahoma City/Will Rog Ann Clg 2% Condns WB=>MDB, ! Name
  31.6,                                   ! Maximum Dry-Bulb Temperature {C}
  11.7,                                   ! Daily Dry-Bulb Temperature Range {deltaC}
  24.3,                                   ! Humidity Indicating Conditions at Maximum Dry-Bulb {BasedOnField A3}
  96646,                                  ! Barometric Pressure {Pa}
  5.5,                                    ! Wind Speed {m/s}
  170,                                    ! Wind Direction {deg}
  0,                                      ! Sky Clearness
  0,                                      ! Rain Indicator
  0,                                      ! Snow Indicator
  21,                                     ! Day of Month
  7,                                      ! Month
  SummerDesignDay,                        ! Day Type
  0,                                      ! Daylight Saving Time Indicator
  Wetbulb,                                ! Humidity Indicating Type
  ,                                       ! Humidity Indicating Day Schedule Name
  DefaultMultipliers,                     ! Dry-Bulb Temperature Range Modifier Type
  ,                                       ! Dry-Bulb Temperature Range Modifier Schedule Name
  ASHRAETau,                              ! Solar Model Indicator
  ,                                       ! Beam Solar Day Schedule Name
  ,                                       ! Diffuse Solar Day Schedule Name
  0.426,                                  ! ASHRAE Taub {dimensionless}
  2.214;                                  ! ASHRAE Taud {dimensionless}

OS:ComponentData,
  {0db3c675-1e5b-47ae-b6bb-90230cfa94e8}, ! Handle
  Component Data 1,                       ! Name
  {ae4d97d8-131f-4feb-8d93-1de6926a8997}, ! UUID
  {f749584a-e6cd-4cd1-9a2b-9786994a9b3b}, ! Version UUID
  1366309923,                             ! Creation Timestamp
  1366309923,                             ! Version Timestamp
  {994b79c0-b05a-4f1a-aa29-3a687167e722}; ! Name of Object 1

