
OS:Version,
  {024f4496-348e-46cd-afa6-d453aaec099a}, ! Handle
  0.9.3;                                  ! Version Identifier

OS:SizingPeriod:DesignDay,
  {09ae8227-039e-43f4-b674-75a1f0f5207e}, ! Handle
  Parkersburg Wood County Ap Ann Clg 1% Condns WB=>MDB, ! Name
  28.9,                                   ! Maximum Dry-Bulb Temperature {C}
  10.8,                                   ! Daily Dry-Bulb Temperature Range {deltaC}
  24.1,                                   ! Humidity Indicating Conditions at Maximum Dry-Bulb {BasedOnField A3}
  98322,                                  ! Barometric Pressure {Pa}
  3.4,                                    ! Wind Speed {m/s}
  250,                                    ! Wind Direction {deg}
  0,                                      ! Sky Clearness
  0,                                      ! Rain Indicator
  0,                                      ! Snow Indicator
  21,                                     ! Day of Month
  7,                                      ! Month
  SummerDesignDay,                        ! Day Type
  0,                                      ! Daylight Saving Time Indicator
  Wetbulb,                                ! Humidity Indicating Type
  ,                                       ! Humidity Indicating Day Schedule Name
  DefaultMultipliers,                     ! Dry-Bulb Temperature Range Modifier Type
  ,                                       ! Dry-Bulb Temperature Range Modifier Schedule Name
  ASHRAETau,                              ! Solar Model Indicator
  ,                                       ! Beam Solar Day Schedule Name
  ,                                       ! Diffuse Solar Day Schedule Name
  0.5,                                    ! ASHRAE Taub {dimensionless}
  1.892;                                  ! ASHRAE Taud {dimensionless}

OS:ComponentData,
  {1f2179b8-e5c8-4dd2-81dc-25b759d385ca}, ! Handle
  Component Data 1,                       ! Name
  {28cb4289-99e1-4de6-95be-941d70d524e9}, ! UUID
  {03842d33-40fd-439b-8f7c-5e53138d4948}, ! Version UUID
  1366311676,                             ! Creation Timestamp
  1366311676,                             ! Version Timestamp
  {09ae8227-039e-43f4-b674-75a1f0f5207e}; ! Name of Object 1

