
OS:Version,
  {e0efb471-2ee2-4cdc-81df-a0eaec7fa162}, ! Handle
  0.9.3;                                  ! Version Identifier

OS:SizingPeriod:DesignDay,
  {05e23131-5dab-4bba-becd-a4fc0e07a911}, ! Handle
  Marthas Vineyard Ann Clg .4% Condns WB=>MDB, ! Name
  26.8,                                   ! Maximum Dry-Bulb Temperature {C}
  9.4,                                    ! Daily Dry-Bulb Temperature Range {deltaC}
  23.9,                                   ! Humidity Indicating Conditions at Maximum Dry-Bulb {BasedOnField A3}
  101073,                                 ! Barometric Pressure {Pa}
  4.6,                                    ! Wind Speed {m/s}
  220,                                    ! Wind Direction {deg}
  0,                                      ! Sky Clearness
  0,                                      ! Rain Indicator
  0,                                      ! Snow Indicator
  21,                                     ! Day of Month
  8,                                      ! Month
  SummerDesignDay,                        ! Day Type
  0,                                      ! Daylight Saving Time Indicator
  Wetbulb,                                ! Humidity Indicating Type
  ,                                       ! Humidity Indicating Day Schedule Name
  DefaultMultipliers,                     ! Dry-Bulb Temperature Range Modifier Type
  ,                                       ! Dry-Bulb Temperature Range Modifier Schedule Name
  ASHRAETau,                              ! Solar Model Indicator
  ,                                       ! Beam Solar Day Schedule Name
  ,                                       ! Diffuse Solar Day Schedule Name
  0.469,                                  ! ASHRAE Taub {dimensionless}
  2.004;                                  ! ASHRAE Taud {dimensionless}

