
OS:Version,
  {d57302fd-098d-45c0-8b3d-d80a7bf5419d}, ! Handle
  0.9.3;                                  ! Version Identifier

OS:SizingPeriod:DesignDay,
  {a77e2d0d-39cc-4815-aeff-4047d765a68a}, ! Handle
  Pensacola Forest Sherman Nas Ann Htg 99% Condns DB, ! Name
  0.1,                                    ! Maximum Dry-Bulb Temperature {C}
  0,                                      ! Daily Dry-Bulb Temperature Range {deltaC}
  0.1,                                    ! Humidity Indicating Conditions at Maximum Dry-Bulb {BasedOnField A3}
  101205,                                 ! Barometric Pressure {Pa}
  3.4,                                    ! Wind Speed {m/s}
  0,                                      ! Wind Direction {deg}
  0,                                      ! Sky Clearness
  0,                                      ! Rain Indicator
  0,                                      ! Snow Indicator
  21,                                     ! Day of Month
  1,                                      ! Month
  WinterDesignDay,                        ! Day Type
  0,                                      ! Daylight Saving Time Indicator
  Wetbulb,                                ! Humidity Indicating Type
  ,                                       ! Humidity Indicating Day Schedule Name
  DefaultMultipliers,                     ! Dry-Bulb Temperature Range Modifier Type
  ,                                       ! Dry-Bulb Temperature Range Modifier Schedule Name
  ASHRAEClearSky;                         ! Solar Model Indicator

OS:ComponentData,
  {49386d7b-8efc-475b-9639-048084d10088}, ! Handle
  Component Data 1,                       ! Name
  {93fba5db-26c1-452d-a6de-bf7ae981c4cd}, ! UUID
  {025ac128-88f7-410b-80a8-d212ce039db4}, ! Version UUID
  1366306901,                             ! Creation Timestamp
  1366306901,                             ! Version Timestamp
  {a77e2d0d-39cc-4815-aeff-4047d765a68a}; ! Name of Object 1

