
OS:Version,
  {6eb43ab0-7ebb-417c-a796-a7d9af1e9b2e}, ! Handle
  0.9.3;                                  ! Version Identifier

OS:SizingPeriod:DesignDay,
  {069f3447-37b8-4eb4-baff-5e35d31afd98}, ! Handle
  Valparaiso Hurlburt Ann Htg Wind 99.6% Condns WS=>MCDB, ! Name
  13.5,                                   ! Maximum Dry-Bulb Temperature {C}
  0,                                      ! Daily Dry-Bulb Temperature Range {deltaC}
  13.5,                                   ! Humidity Indicating Conditions at Maximum Dry-Bulb {BasedOnField A3}
  101181,                                 ! Barometric Pressure {Pa}
  10,                                     ! Wind Speed {m/s}
  0,                                      ! Wind Direction {deg}
  0,                                      ! Sky Clearness
  0,                                      ! Rain Indicator
  0,                                      ! Snow Indicator
  21,                                     ! Day of Month
  1,                                      ! Month
  WinterDesignDay,                        ! Day Type
  0,                                      ! Daylight Saving Time Indicator
  Wetbulb,                                ! Humidity Indicating Type
  ,                                       ! Humidity Indicating Day Schedule Name
  DefaultMultipliers,                     ! Dry-Bulb Temperature Range Modifier Type
  ,                                       ! Dry-Bulb Temperature Range Modifier Schedule Name
  ASHRAEClearSky;                         ! Solar Model Indicator

OS:ComponentData,
  {1f085a76-3fa3-4744-a012-31e05732ecf2}, ! Handle
  Component Data 1,                       ! Name
  {50f9bee7-78c0-4e1f-8bc4-a770975c36d9}, ! UUID
  {be25b9b5-d41f-425a-ba93-82e44107b1a5}, ! Version UUID
  1366306805,                             ! Creation Timestamp
  1366306805,                             ! Version Timestamp
  {069f3447-37b8-4eb4-baff-5e35d31afd98}; ! Name of Object 1

