
OS:Version,
  {67840f75-c6c2-4a9f-9942-79fa5439c998}, ! Handle
  0.9.3;                                  ! Version Identifier

OS:SizingPeriod:DesignDay,
  {32d8e2e7-d616-4f05-8bf5-9c7c9d49e011}, ! Handle
  Norwood Memorial Ann Clg .4% Condns DP=>MDB, ! Name
  26.5,                                   ! Maximum Dry-Bulb Temperature {C}
  11.9,                                   ! Daily Dry-Bulb Temperature Range {deltaC}
  23.1,                                   ! Humidity Indicating Conditions at Maximum Dry-Bulb {BasedOnField A3}
  101145,                                 ! Barometric Pressure {Pa}
  4.7,                                    ! Wind Speed {m/s}
  280,                                    ! Wind Direction {deg}
  0,                                      ! Sky Clearness
  0,                                      ! Rain Indicator
  0,                                      ! Snow Indicator
  21,                                     ! Day of Month
  7,                                      ! Month
  SummerDesignDay,                        ! Day Type
  0,                                      ! Daylight Saving Time Indicator
  Dewpoint,                               ! Humidity Indicating Type
  ,                                       ! Humidity Indicating Day Schedule Name
  DefaultMultipliers,                     ! Dry-Bulb Temperature Range Modifier Type
  ,                                       ! Dry-Bulb Temperature Range Modifier Schedule Name
  ASHRAETau,                              ! Solar Model Indicator
  ,                                       ! Beam Solar Day Schedule Name
  ,                                       ! Diffuse Solar Day Schedule Name
  0.492,                                  ! ASHRAE Taub {dimensionless}
  1.934;                                  ! ASHRAE Taud {dimensionless}

OS:ComponentData,
  {896017bf-5d57-433b-8d15-c4564f837498}, ! Handle
  Component Data 1,                       ! Name
  {0b00b12c-cc8e-482c-8794-9c8298d5ad53}, ! UUID
  {78592d4e-d963-4c58-a432-63ff2157f0a6}, ! Version UUID
  1366307811,                             ! Creation Timestamp
  1366307811,                             ! Version Timestamp
  {32d8e2e7-d616-4f05-8bf5-9c7c9d49e011}; ! Name of Object 1

