
OS:Version,
  {8e7955a1-dd46-41e6-a804-eeb60a78ab5b}, ! Handle
  0.9.3;                                  ! Version Identifier

OS:SizingPeriod:DesignDay,
  {08153402-8f48-4d4e-a314-f7de7d65334e}, ! Handle
  Vero Beach Municipal Arpt Ann Hum_n 99% Condns DP=>MCDB, ! Name
  9.1,                                    ! Maximum Dry-Bulb Temperature {C}
  0,                                      ! Daily Dry-Bulb Temperature Range {deltaC}
  0,                                      ! Humidity Indicating Conditions at Maximum Dry-Bulb {BasedOnField A3}
  101241,                                 ! Barometric Pressure {Pa}
  3.3,                                    ! Wind Speed {m/s}
  320,                                    ! Wind Direction {deg}
  0,                                      ! Sky Clearness
  0,                                      ! Rain Indicator
  0,                                      ! Snow Indicator
  21,                                     ! Day of Month
  1,                                      ! Month
  WinterDesignDay,                        ! Day Type
  0,                                      ! Daylight Saving Time Indicator
  Dewpoint,                               ! Humidity Indicating Type
  ,                                       ! Humidity Indicating Day Schedule Name
  DefaultMultipliers,                     ! Dry-Bulb Temperature Range Modifier Type
  ,                                       ! Dry-Bulb Temperature Range Modifier Schedule Name
  ASHRAEClearSky;                         ! Solar Model Indicator

OS:ComponentData,
  {bd8de8cf-5230-4168-a4f4-45518bbe9d83}, ! Handle
  Component Data 1,                       ! Name
  {aa84766f-7b78-4074-9c8c-f477d09713f3}, ! UUID
  {0392e4a5-4af6-44a6-8449-8f1672977c44}, ! Version UUID
  1366306945,                             ! Creation Timestamp
  1366306945,                             ! Version Timestamp
  {08153402-8f48-4d4e-a314-f7de7d65334e}; ! Name of Object 1

