
OS:Version,
  {af1128a8-a1bb-4792-af4b-04c38063af7d}, ! Handle
  0.9.3;                                  ! Version Identifier

OS:SizingPeriod:DesignDay,
  {a0ed2f52-3015-417f-8e60-6a658a44a617}, ! Handle
  SAN_FRANCISCO Ann Clg 1% Condns DP=>MDB, ! Name
  19.2,                                   ! Maximum Dry-Bulb Temperature {C}
  8.5,                                    ! Daily Dry-Bulb Temperature Range {deltaC}
  15.3,                                   ! Humidity Indicating Conditions at Maximum Dry-Bulb {BasedOnField A3}
  101265,                                 ! Barometric Pressure {Pa}
  5.9,                                    ! Wind Speed {m/s}
  310,                                    ! Wind Direction {deg}
  0,                                      ! Sky Clearness
  0,                                      ! Rain Indicator
  0,                                      ! Snow Indicator
  21,                                     ! Day of Month
  8,                                      ! Month
  SummerDesignDay,                        ! Day Type
  0,                                      ! Daylight Saving Time Indicator
  Dewpoint,                               ! Humidity Indicating Type
  ,                                       ! Humidity Indicating Day Schedule Name
  DefaultMultipliers,                     ! Dry-Bulb Temperature Range Modifier Type
  ,                                       ! Dry-Bulb Temperature Range Modifier Schedule Name
  ASHRAETau,                              ! Solar Model Indicator
  ,                                       ! Beam Solar Day Schedule Name
  ,                                       ! Diffuse Solar Day Schedule Name
  0.365,                                  ! ASHRAE Taub {dimensionless}
  2.435;                                  ! ASHRAE Taud {dimensionless}

OS:ComponentData,
  {d38c6eac-7fbc-4cf0-a182-77f32c2e5ab1}, ! Handle
  Component Data 1,                       ! Name
  {9cbb517d-54b8-46b9-b839-f4edbed5149d}, ! UUID
  {32dec0be-212b-431b-b7a1-75fade2344c4}, ! Version UUID
  1366306591,                             ! Creation Timestamp
  1366306591,                             ! Version Timestamp
  {a0ed2f52-3015-417f-8e60-6a658a44a617}; ! Name of Object 1

