
OS:Version,
  {d2739b98-1731-4f4c-8d4e-bdca6e768087}, ! Handle
  0.9.3;                                  ! Version Identifier

OS:SizingPeriod:DesignDay,
  {c0beb737-deb5-48cf-be36-22f081dd352d}, ! Handle
  Redmond Ann Clg 2% Condns Enth=>MDB,    ! Name
  28.5,                                   ! Maximum Dry-Bulb Temperature {C}
  20,                                     ! Daily Dry-Bulb Temperature Range {deltaC}
  47700,                                  ! Humidity Indicating Conditions at Maximum Dry-Bulb {BasedOnField A3}
  90552,                                  ! Barometric Pressure {Pa}
  4.7,                                    ! Wind Speed {m/s}
  350,                                    ! Wind Direction {deg}
  0,                                      ! Sky Clearness
  0,                                      ! Rain Indicator
  0,                                      ! Snow Indicator
  21,                                     ! Day of Month
  7,                                      ! Month
  SummerDesignDay,                        ! Day Type
  0,                                      ! Daylight Saving Time Indicator
  Enthalpy,                               ! Humidity Indicating Type
  ,                                       ! Humidity Indicating Day Schedule Name
  DefaultMultipliers,                     ! Dry-Bulb Temperature Range Modifier Type
  ,                                       ! Dry-Bulb Temperature Range Modifier Schedule Name
  ASHRAETau,                              ! Solar Model Indicator
  ,                                       ! Beam Solar Day Schedule Name
  ,                                       ! Diffuse Solar Day Schedule Name
  0.355,                                  ! ASHRAE Taub {dimensionless}
  2.422;                                  ! ASHRAE Taud {dimensionless}

OS:ComponentData,
  {9015f020-a7bb-47f6-9f5e-8b46121caaab}, ! Handle
  Component Data 1,                       ! Name
  {9a469511-8284-4d45-b068-f74b89633525}, ! UUID
  {e95062d8-83d4-4865-b4aa-e8186b08ae75}, ! Version UUID
  1366310094,                             ! Creation Timestamp
  1366310094,                             ! Version Timestamp
  {c0beb737-deb5-48cf-be36-22f081dd352d}; ! Name of Object 1

