
OS:Version,
  {852d2416-c745-4a5c-ad80-a917340353bd}, ! Handle
  0.9.3;                                  ! Version Identifier

OS:SizingPeriod:DesignDay,
  {e532ce11-2673-4dff-bbe3-7af8eca642c0}, ! Handle
  Talkeetna State Arpt Ann Hum_n 99% Condns DP=>MCDB, ! Name
  -26.2,                                  ! Maximum Dry-Bulb Temperature {C}
  0,                                      ! Daily Dry-Bulb Temperature Range {deltaC}
  -31.3,                                  ! Humidity Indicating Conditions at Maximum Dry-Bulb {BasedOnField A3}
  100070,                                 ! Barometric Pressure {Pa}
  1.1,                                    ! Wind Speed {m/s}
  30,                                     ! Wind Direction {deg}
  0,                                      ! Sky Clearness
  0,                                      ! Rain Indicator
  0,                                      ! Snow Indicator
  21,                                     ! Day of Month
  1,                                      ! Month
  WinterDesignDay,                        ! Day Type
  0,                                      ! Daylight Saving Time Indicator
  Dewpoint,                               ! Humidity Indicating Type
  ,                                       ! Humidity Indicating Day Schedule Name
  DefaultMultipliers,                     ! Dry-Bulb Temperature Range Modifier Type
  ,                                       ! Dry-Bulb Temperature Range Modifier Schedule Name
  ASHRAEClearSky;                         ! Solar Model Indicator

OS:ComponentData,
  {ff7c9b23-a643-4bc5-8b32-29d3845ec179}, ! Handle
  Component Data 1,                       ! Name
  {775e1dab-c3e7-4800-82fa-c40901d4044a}, ! UUID
  {86b59b75-d599-4b7e-994e-103aa4054baa}, ! Version UUID
  1366305587,                             ! Creation Timestamp
  1366305587,                             ! Version Timestamp
  {e532ce11-2673-4dff-bbe3-7af8eca642c0}; ! Name of Object 1

