
OS:Version,
  {f55fa9de-6997-4cec-9081-ab44021a9c99}, ! Handle
  0.9.3;                                  ! Version Identifier

OS:SizingPeriod:DesignDay,
  {64cba1bc-3ce9-4dac-822f-2f8548ed0686}, ! Handle
  Salmon Lemhi  Awos Ann Clg .4% Condns Enth=>MDB, ! Name
  28,                                     ! Maximum Dry-Bulb Temperature {C}
  18.2,                                   ! Daily Dry-Bulb Temperature Range {deltaC}
  54100,                                  ! Humidity Indicating Conditions at Maximum Dry-Bulb {BasedOnField A3}
  87363,                                  ! Barometric Pressure {Pa}
  3.7,                                    ! Wind Speed {m/s}
  330,                                    ! Wind Direction {deg}
  0,                                      ! Sky Clearness
  0,                                      ! Rain Indicator
  0,                                      ! Snow Indicator
  21,                                     ! Day of Month
  7,                                      ! Month
  SummerDesignDay,                        ! Day Type
  0,                                      ! Daylight Saving Time Indicator
  Enthalpy,                               ! Humidity Indicating Type
  ,                                       ! Humidity Indicating Day Schedule Name
  DefaultMultipliers,                     ! Dry-Bulb Temperature Range Modifier Type
  ,                                       ! Dry-Bulb Temperature Range Modifier Schedule Name
  ASHRAETau,                              ! Solar Model Indicator
  ,                                       ! Beam Solar Day Schedule Name
  ,                                       ! Diffuse Solar Day Schedule Name
  0.376,                                  ! ASHRAE Taub {dimensionless}
  2.269;                                  ! ASHRAE Taud {dimensionless}

OS:ComponentData,
  {c648b08e-bf12-4d63-8ba1-89374aebe718}, ! Handle
  Component Data 1,                       ! Name
  {e88ee3ca-2c37-45d1-bb24-b600c6b89c2c}, ! UUID
  {77d31ffe-f929-41cf-9c9f-701e814e5a14}, ! Version UUID
  1366307312,                             ! Creation Timestamp
  1366307312,                             ! Version Timestamp
  {64cba1bc-3ce9-4dac-822f-2f8548ed0686}; ! Name of Object 1

