
OS:Version,
  {037bc213-459d-4898-9757-30881ad00792}, ! Handle
  0.9.3;                                  ! Version Identifier

OS:SizingPeriod:DesignDay,
  {88b90f17-e136-4599-a645-66906f70a1ff}, ! Handle
  Marfa Ap Ann Clg 1% Condns Enth=>MDB,   ! Name
  26.5,                                   ! Maximum Dry-Bulb Temperature {C}
  17.6,                                   ! Daily Dry-Bulb Temperature Range {deltaC}
  61000,                                  ! Humidity Indicating Conditions at Maximum Dry-Bulb {BasedOnField A3}
  84836,                                  ! Barometric Pressure {Pa}
  4.3,                                    ! Wind Speed {m/s}
  180,                                    ! Wind Direction {deg}
  0,                                      ! Sky Clearness
  0,                                      ! Rain Indicator
  0,                                      ! Snow Indicator
  21,                                     ! Day of Month
  6,                                      ! Month
  SummerDesignDay,                        ! Day Type
  0,                                      ! Daylight Saving Time Indicator
  Enthalpy,                               ! Humidity Indicating Type
  ,                                       ! Humidity Indicating Day Schedule Name
  DefaultMultipliers,                     ! Dry-Bulb Temperature Range Modifier Type
  ,                                       ! Dry-Bulb Temperature Range Modifier Schedule Name
  ASHRAETau,                              ! Solar Model Indicator
  ,                                       ! Beam Solar Day Schedule Name
  ,                                       ! Diffuse Solar Day Schedule Name
  0.481,                                  ! ASHRAE Taub {dimensionless}
  1.819;                                  ! ASHRAE Taud {dimensionless}

OS:ComponentData,
  {9c863485-a820-4c51-8526-db3eb0a7223d}, ! Handle
  Component Data 1,                       ! Name
  {2af97607-23f2-40cc-bb1e-60db6a83fbf8}, ! UUID
  {00b8b519-0abe-4a6d-a103-45fa4f27490c}, ! Version UUID
  1366310816,                             ! Creation Timestamp
  1366310816,                             ! Version Timestamp
  {88b90f17-e136-4599-a645-66906f70a1ff}; ! Name of Object 1

