
OS:Version,
  {bbd44d51-3de3-46cf-b8be-361b6220d354}, ! Handle
  0.9.3;                                  ! Version Identifier

OS:SizingPeriod:DesignDay,
  {c2596871-daa9-4e8e-9047-b3b3726997b1}, ! Handle
  Salmon Lemhi  Awos Ann Htg Wind 99.6% Condns WS=>MCDB, ! Name
  -1.1,                                   ! Maximum Dry-Bulb Temperature {C}
  0,                                      ! Daily Dry-Bulb Temperature Range {deltaC}
  -1.1,                                   ! Humidity Indicating Conditions at Maximum Dry-Bulb {BasedOnField A3}
  87363,                                  ! Barometric Pressure {Pa}
  8.7,                                    ! Wind Speed {m/s}
  150,                                    ! Wind Direction {deg}
  0,                                      ! Sky Clearness
  0,                                      ! Rain Indicator
  0,                                      ! Snow Indicator
  21,                                     ! Day of Month
  1,                                      ! Month
  WinterDesignDay,                        ! Day Type
  0,                                      ! Daylight Saving Time Indicator
  Wetbulb,                                ! Humidity Indicating Type
  ,                                       ! Humidity Indicating Day Schedule Name
  DefaultMultipliers,                     ! Dry-Bulb Temperature Range Modifier Type
  ,                                       ! Dry-Bulb Temperature Range Modifier Schedule Name
  ASHRAEClearSky;                         ! Solar Model Indicator

OS:ComponentData,
  {41a5d7e7-6760-4ab2-98ca-2589c368fc8e}, ! Handle
  Component Data 1,                       ! Name
  {32339f63-7447-424c-829f-ead2370a7a49}, ! UUID
  {8c1956c4-9c7f-445d-8d96-dadd6372b77f}, ! Version UUID
  1366307310,                             ! Creation Timestamp
  1366307310,                             ! Version Timestamp
  {c2596871-daa9-4e8e-9047-b3b3726997b1}; ! Name of Object 1

