
OS:Version,
  {0a78fbd3-0f75-46cd-9164-85ed46922069}, ! Handle
  0.9.3;                                  ! Version Identifier

OS:SizingPeriod:DesignDay,
  {1532728b-7796-470a-a441-9626ea440da7}, ! Handle
  Macon Middle Ga Regional Ap Ann Clg .4% Condns Enth=>MDB, ! Name
  32.6,                                   ! Maximum Dry-Bulb Temperature {C}
  11.1,                                   ! Daily Dry-Bulb Temperature Range {deltaC}
  81400,                                  ! Humidity Indicating Conditions at Maximum Dry-Bulb {BasedOnField A3}
  100034,                                 ! Barometric Pressure {Pa}
  3.6,                                    ! Wind Speed {m/s}
  300,                                    ! Wind Direction {deg}
  0,                                      ! Sky Clearness
  0,                                      ! Rain Indicator
  0,                                      ! Snow Indicator
  21,                                     ! Day of Month
  7,                                      ! Month
  SummerDesignDay,                        ! Day Type
  0,                                      ! Daylight Saving Time Indicator
  Enthalpy,                               ! Humidity Indicating Type
  ,                                       ! Humidity Indicating Day Schedule Name
  DefaultMultipliers,                     ! Dry-Bulb Temperature Range Modifier Type
  ,                                       ! Dry-Bulb Temperature Range Modifier Schedule Name
  ASHRAETau,                              ! Solar Model Indicator
  ,                                       ! Beam Solar Day Schedule Name
  ,                                       ! Diffuse Solar Day Schedule Name
  0.549,                                  ! ASHRAE Taub {dimensionless}
  1.812;                                  ! ASHRAE Taud {dimensionless}

OS:ComponentData,
  {470c520b-fc54-4de0-a56e-210845fe6239}, ! Handle
  Component Data 1,                       ! Name
  {cfa2c0b4-f080-4b39-ab07-d0fcf68d212a}, ! UUID
  {6d3fde79-7e70-49e8-89b4-c9355ee7ecee}, ! Version UUID
  1366307024,                             ! Creation Timestamp
  1366307024,                             ! Version Timestamp
  {1532728b-7796-470a-a441-9626ea440da7}; ! Name of Object 1

