
OS:Version,
  {7d3231bf-c355-4066-b609-beb2ab09b84f}, ! Handle
  0.9.3;                                  ! Version Identifier

OS:SizingPeriod:DesignDay,
  {02f67263-358a-4fe7-9e1d-ab1b3646930d}, ! Handle
  Memphis International Ap Ann Clg .4% Condns WB=>MDB, ! Name
  32.8,                                   ! Maximum Dry-Bulb Temperature {C}
  9.2,                                    ! Daily Dry-Bulb Temperature Range {deltaC}
  26.8,                                   ! Humidity Indicating Conditions at Maximum Dry-Bulb {BasedOnField A3}
  100356,                                 ! Barometric Pressure {Pa}
  3.8,                                    ! Wind Speed {m/s}
  240,                                    ! Wind Direction {deg}
  0,                                      ! Sky Clearness
  0,                                      ! Rain Indicator
  0,                                      ! Snow Indicator
  21,                                     ! Day of Month
  7,                                      ! Month
  SummerDesignDay,                        ! Day Type
  0,                                      ! Daylight Saving Time Indicator
  Wetbulb,                                ! Humidity Indicating Type
  ,                                       ! Humidity Indicating Day Schedule Name
  DefaultMultipliers,                     ! Dry-Bulb Temperature Range Modifier Type
  ,                                       ! Dry-Bulb Temperature Range Modifier Schedule Name
  ASHRAETau,                              ! Solar Model Indicator
  ,                                       ! Beam Solar Day Schedule Name
  ,                                       ! Diffuse Solar Day Schedule Name
  0.512,                                  ! ASHRAE Taub {dimensionless}
  1.892;                                  ! ASHRAE Taud {dimensionless}

OS:ComponentData,
  {c6ee63fb-b090-4063-a9b0-973119942ab7}, ! Handle
  Component Data 1,                       ! Name
  {c4c58245-da3b-4c12-9973-a4fb4c53831f}, ! UUID
  {bdbbd808-c963-42e8-93f6-f9535ffde0bc}, ! Version UUID
  1366310529,                             ! Creation Timestamp
  1366310529,                             ! Version Timestamp
  {02f67263-358a-4fe7-9e1d-ab1b3646930d}; ! Name of Object 1

