
OS:Version,
  {9e79b271-2347-4127-b797-c02e53ff09ee}, ! Handle
  0.9.3;                                  ! Version Identifier

OS:SizingPeriod:DesignDay,
  {878900e9-d40e-4bf2-afb5-ae4757020a4c}, ! Handle
  Tucson Ann Htg Wind 99.6% Condns WS=>MCDB, ! Name
  14.4,                                   ! Maximum Dry-Bulb Temperature {C}
  0,                                      ! Daily Dry-Bulb Temperature Range {deltaC}
  14.4,                                   ! Humidity Indicating Conditions at Maximum Dry-Bulb {BasedOnField A3}
  92310,                                  ! Barometric Pressure {Pa}
  11.1,                                   ! Wind Speed {m/s}
  140,                                    ! Wind Direction {deg}
  0,                                      ! Sky Clearness
  0,                                      ! Rain Indicator
  0,                                      ! Snow Indicator
  21,                                     ! Day of Month
  12,                                     ! Month
  WinterDesignDay,                        ! Day Type
  0,                                      ! Daylight Saving Time Indicator
  Wetbulb,                                ! Humidity Indicating Type
  ,                                       ! Humidity Indicating Day Schedule Name
  DefaultMultipliers,                     ! Dry-Bulb Temperature Range Modifier Type
  ,                                       ! Dry-Bulb Temperature Range Modifier Schedule Name
  ASHRAEClearSky;                         ! Solar Model Indicator

OS:ComponentData,
  {40116cbe-75c6-4e02-a5ac-106e1ce1bf54}, ! Handle
  Component Data 1,                       ! Name
  {9e069a5b-93af-4030-ac73-cc997a38f8b5}, ! UUID
  {a0974127-848c-4c88-bd13-8bf699d0af02}, ! Version UUID
  1366306320,                             ! Creation Timestamp
  1366306320,                             ! Version Timestamp
  {878900e9-d40e-4bf2-afb5-ae4757020a4c}; ! Name of Object 1

