
OS:Version,
  {69af6b0a-6b8e-4f7f-9189-90b665c513a2}, ! Handle
  0.9.3;                                  ! Version Identifier

OS:SizingPeriod:DesignDay,
  {2949d4cc-b708-46a3-8adf-fe1806ddfee8}, ! Handle
  Washington Dc Reagan Ap Ann Clg 2% Condns DP=>MDB, ! Name
  27.3,                                   ! Maximum Dry-Bulb Temperature {C}
  8.9,                                    ! Daily Dry-Bulb Temperature Range {deltaC}
  23.2,                                   ! Humidity Indicating Conditions at Maximum Dry-Bulb {BasedOnField A3}
  101289,                                 ! Barometric Pressure {Pa}
  4.6,                                    ! Wind Speed {m/s}
  170,                                    ! Wind Direction {deg}
  0,                                      ! Sky Clearness
  0,                                      ! Rain Indicator
  0,                                      ! Snow Indicator
  21,                                     ! Day of Month
  7,                                      ! Month
  SummerDesignDay,                        ! Day Type
  0,                                      ! Daylight Saving Time Indicator
  Dewpoint,                               ! Humidity Indicating Type
  ,                                       ! Humidity Indicating Day Schedule Name
  DefaultMultipliers,                     ! Dry-Bulb Temperature Range Modifier Type
  ,                                       ! Dry-Bulb Temperature Range Modifier Schedule Name
  ASHRAETau,                              ! Solar Model Indicator
  ,                                       ! Beam Solar Day Schedule Name
  ,                                       ! Diffuse Solar Day Schedule Name
  0.563,                                  ! ASHRAE Taub {dimensionless}
  1.747;                                  ! ASHRAE Taud {dimensionless}

OS:ComponentData,
  {3efdca2c-ba4d-40b7-83ba-08823a7709de}, ! Handle
  Component Data 1,                       ! Name
  {75855236-8cc0-4966-9906-6c4274ef0c5b}, ! UUID
  {d5ad1a0c-693c-4043-bc65-86c0c3cc7dd9}, ! Version UUID
  1366311019,                             ! Creation Timestamp
  1366311019,                             ! Version Timestamp
  {2949d4cc-b708-46a3-8adf-fe1806ddfee8}; ! Name of Object 1

