
OS:Version,
  {0eb7c37a-9211-4bed-9507-70d2498fa38d}, ! Handle
  0.9.3;                                  ! Version Identifier

OS:SizingPeriod:DesignDay,
  {d54164d7-90f0-420b-8ba1-9cc50f0ef7b3}, ! Handle
  Modesto City County Ap Ann Clg 2% Condns WB=>MDB, ! Name
  33.5,                                   ! Maximum Dry-Bulb Temperature {C}
  16.7,                                   ! Daily Dry-Bulb Temperature Range {deltaC}
  20.7,                                   ! Humidity Indicating Conditions at Maximum Dry-Bulb {BasedOnField A3}
  100965,                                 ! Barometric Pressure {Pa}
  4.5,                                    ! Wind Speed {m/s}
  320,                                    ! Wind Direction {deg}
  0,                                      ! Sky Clearness
  0,                                      ! Rain Indicator
  0,                                      ! Snow Indicator
  21,                                     ! Day of Month
  7,                                      ! Month
  SummerDesignDay,                        ! Day Type
  0,                                      ! Daylight Saving Time Indicator
  Wetbulb,                                ! Humidity Indicating Type
  ,                                       ! Humidity Indicating Day Schedule Name
  DefaultMultipliers,                     ! Dry-Bulb Temperature Range Modifier Type
  ,                                       ! Dry-Bulb Temperature Range Modifier Schedule Name
  ASHRAETau,                              ! Solar Model Indicator
  ,                                       ! Beam Solar Day Schedule Name
  ,                                       ! Diffuse Solar Day Schedule Name
  0.392,                                  ! ASHRAE Taub {dimensionless}
  2.306;                                  ! ASHRAE Taud {dimensionless}

OS:ComponentData,
  {f9b172a3-1d92-43da-adbc-65920397c78c}, ! Handle
  Component Data 1,                       ! Name
  {b5b787d1-cdd2-4bd4-9c71-b2d85ec4d5d5}, ! UUID
  {28f7a075-6454-48ce-80d2-720e9907e8f8}, ! Version UUID
  1366306490,                             ! Creation Timestamp
  1366306490,                             ! Version Timestamp
  {d54164d7-90f0-420b-8ba1-9cc50f0ef7b3}; ! Name of Object 1

