
OS:Version,
  {eb8d9617-163f-4afb-86df-d27323563db7}, ! Handle
  0.9.3;                                  ! Version Identifier

OS:SizingPeriod:DesignDay,
  {da82ff20-f005-44cf-9893-efb324b9e905}, ! Handle
  Staunton Shenandoah Ann Clg 2% Condns DB=>MWB, ! Name
  32,                                     ! Maximum Dry-Bulb Temperature {C}
  11.8,                                   ! Daily Dry-Bulb Temperature Range {deltaC}
  23,                                     ! Humidity Indicating Conditions at Maximum Dry-Bulb {BasedOnField A3}
  97005,                                  ! Barometric Pressure {Pa}
  3.2,                                    ! Wind Speed {m/s}
  220,                                    ! Wind Direction {deg}
  0,                                      ! Sky Clearness
  0,                                      ! Rain Indicator
  0,                                      ! Snow Indicator
  21,                                     ! Day of Month
  7,                                      ! Month
  SummerDesignDay,                        ! Day Type
  0,                                      ! Daylight Saving Time Indicator
  Wetbulb,                                ! Humidity Indicating Type
  ,                                       ! Humidity Indicating Day Schedule Name
  DefaultMultipliers,                     ! Dry-Bulb Temperature Range Modifier Type
  ,                                       ! Dry-Bulb Temperature Range Modifier Schedule Name
  ASHRAETau,                              ! Solar Model Indicator
  ,                                       ! Beam Solar Day Schedule Name
  ,                                       ! Diffuse Solar Day Schedule Name
  0.524,                                  ! ASHRAE Taub {dimensionless}
  1.829;                                  ! ASHRAE Taud {dimensionless}

OS:ComponentData,
  {d86d0d59-dfc4-4455-b034-edfb24a99b23}, ! Handle
  Component Data 1,                       ! Name
  {ace21342-58ec-49c9-9ebb-98f690dbb2ae}, ! UUID
  {260015d8-17e2-4d83-956b-8e7b4bb3cfe5}, ! Version UUID
  1366311197,                             ! Creation Timestamp
  1366311197,                             ! Version Timestamp
  {da82ff20-f005-44cf-9893-efb324b9e905}; ! Name of Object 1

