
OS:Version,
  {699edc9b-fd5d-4979-a413-ad036712ba59}, ! Handle
  0.9.3;                                  ! Version Identifier

OS:SizingPeriod:DesignDay,
  {611befc4-649e-4ef5-b7fd-ba0a1cd8d7dc}, ! Handle
  Nasa Shuttle Fclty Ann Htg Wind 99% Condns WS=>MCDB, ! Name
  16.3,                                   ! Maximum Dry-Bulb Temperature {C}
  0,                                      ! Daily Dry-Bulb Temperature Range {deltaC}
  16.3,                                   ! Humidity Indicating Conditions at Maximum Dry-Bulb {BasedOnField A3}
  101289,                                 ! Barometric Pressure {Pa}
  9.2,                                    ! Wind Speed {m/s}
  320,                                    ! Wind Direction {deg}
  0,                                      ! Sky Clearness
  0,                                      ! Rain Indicator
  0,                                      ! Snow Indicator
  21,                                     ! Day of Month
  1,                                      ! Month
  WinterDesignDay,                        ! Day Type
  0,                                      ! Daylight Saving Time Indicator
  Wetbulb,                                ! Humidity Indicating Type
  ,                                       ! Humidity Indicating Day Schedule Name
  DefaultMultipliers,                     ! Dry-Bulb Temperature Range Modifier Type
  ,                                       ! Dry-Bulb Temperature Range Modifier Schedule Name
  ASHRAEClearSky;                         ! Solar Model Indicator

OS:ComponentData,
  {bf9b2513-58e3-4ffb-84d9-2bdadaa8c102}, ! Handle
  Component Data 1,                       ! Name
  {e3a3f844-2424-492d-9b1d-0ee3eb689009}, ! UUID
  {15fefff1-5b20-430a-abdb-093df0f8d87d}, ! Version UUID
  1366306876,                             ! Creation Timestamp
  1366306876,                             ! Version Timestamp
  {611befc4-649e-4ef5-b7fd-ba0a1cd8d7dc}; ! Name of Object 1

