
OS:Version,
  {ac829c7f-b9f9-435f-ba1c-f3d583e6b79e}, ! Handle
  0.9.3;                                  ! Version Identifier

OS:SizingPeriod:DesignDay,
  {57982466-0d7d-4649-9ec2-9aabe3557568}, ! Handle
  Mountain View/Moffet N Ann Clg 1% Condns DP=>MDB, ! Name
  22.4,                                   ! Maximum Dry-Bulb Temperature {C}
  9.5,                                    ! Daily Dry-Bulb Temperature Range {deltaC}
  16.4,                                   ! Humidity Indicating Conditions at Maximum Dry-Bulb {BasedOnField A3}
  101181,                                 ! Barometric Pressure {Pa}
  3.9,                                    ! Wind Speed {m/s}
  340,                                    ! Wind Direction {deg}
  0,                                      ! Sky Clearness
  0,                                      ! Rain Indicator
  0,                                      ! Snow Indicator
  21,                                     ! Day of Month
  7,                                      ! Month
  SummerDesignDay,                        ! Day Type
  0,                                      ! Daylight Saving Time Indicator
  Dewpoint,                               ! Humidity Indicating Type
  ,                                       ! Humidity Indicating Day Schedule Name
  DefaultMultipliers,                     ! Dry-Bulb Temperature Range Modifier Type
  ,                                       ! Dry-Bulb Temperature Range Modifier Schedule Name
  ASHRAETau,                              ! Solar Model Indicator
  ,                                       ! Beam Solar Day Schedule Name
  ,                                       ! Diffuse Solar Day Schedule Name
  0.378,                                  ! ASHRAE Taub {dimensionless}
  2.37;                                   ! ASHRAE Taud {dimensionless}

OS:ComponentData,
  {62376118-fadc-4ee6-807f-f42b1197f0e6}, ! Handle
  Component Data 1,                       ! Name
  {c83202d8-9b33-4f3f-8cda-ab87fa7e9d9c}, ! UUID
  {4523783e-7fd7-4fa1-a36a-90674fb501fc}, ! Version UUID
  1366306506,                             ! Creation Timestamp
  1366306506,                             ! Version Timestamp
  {57982466-0d7d-4649-9ec2-9aabe3557568}; ! Name of Object 1

