
OS:Version,
  {6f900f92-0321-4a22-8fca-e7c32cc26f93}, ! Handle
  0.9.3;                                  ! Version Identifier

OS:SizingPeriod:DesignDay,
  {575e569c-d8c0-479a-8143-971f7e395bf7}, ! Handle
  Mora Muni  Awos Ann Clg 2% Condns WB=>MDB, ! Name
  26.3,                                   ! Maximum Dry-Bulb Temperature {C}
  12,                                     ! Daily Dry-Bulb Temperature Range {deltaC}
  21.8,                                   ! Humidity Indicating Conditions at Maximum Dry-Bulb {BasedOnField A3}
  97668,                                  ! Barometric Pressure {Pa}
  4.1,                                    ! Wind Speed {m/s}
  190,                                    ! Wind Direction {deg}
  0,                                      ! Sky Clearness
  0,                                      ! Rain Indicator
  0,                                      ! Snow Indicator
  21,                                     ! Day of Month
  7,                                      ! Month
  SummerDesignDay,                        ! Day Type
  0,                                      ! Daylight Saving Time Indicator
  Wetbulb,                                ! Humidity Indicating Type
  ,                                       ! Humidity Indicating Day Schedule Name
  DefaultMultipliers,                     ! Dry-Bulb Temperature Range Modifier Type
  ,                                       ! Dry-Bulb Temperature Range Modifier Schedule Name
  ASHRAETau,                              ! Solar Model Indicator
  ,                                       ! Beam Solar Day Schedule Name
  ,                                       ! Diffuse Solar Day Schedule Name
  0.405,                                  ! ASHRAE Taub {dimensionless}
  2.202;                                  ! ASHRAE Taud {dimensionless}

OS:ComponentData,
  {e6759aa7-b7c4-48e6-b41f-814ac884fcc5}, ! Handle
  Component Data 1,                       ! Name
  {55f33c70-f2ce-48e2-a235-bcdc390069f7}, ! UUID
  {68b4589a-d930-4a99-8b6d-15e1d8e0388e}, ! Version UUID
  1366308330,                             ! Creation Timestamp
  1366308330,                             ! Version Timestamp
  {575e569c-d8c0-479a-8143-971f7e395bf7}; ! Name of Object 1

