
OS:Version,
  {374919f3-a88a-45f0-be2c-f6004f2af59c}, ! Handle
  0.9.3;                                  ! Version Identifier

OS:SizingPeriod:DesignDay,
  {edfc2199-33d8-48d8-913f-f9e587429876}, ! Handle
  Quincy Muni Baldwin Fld Ann Clg .4% Condns DP=>MDB, ! Name
  29.3,                                   ! Maximum Dry-Bulb Temperature {C}
  10.4,                                   ! Daily Dry-Bulb Temperature Range {deltaC}
  24.2,                                   ! Humidity Indicating Conditions at Maximum Dry-Bulb {BasedOnField A3}
  98557,                                  ! Barometric Pressure {Pa}
  4.8,                                    ! Wind Speed {m/s}
  220,                                    ! Wind Direction {deg}
  0,                                      ! Sky Clearness
  0,                                      ! Rain Indicator
  0,                                      ! Snow Indicator
  21,                                     ! Day of Month
  7,                                      ! Month
  SummerDesignDay,                        ! Day Type
  0,                                      ! Daylight Saving Time Indicator
  Dewpoint,                               ! Humidity Indicating Type
  ,                                       ! Humidity Indicating Day Schedule Name
  DefaultMultipliers,                     ! Dry-Bulb Temperature Range Modifier Type
  ,                                       ! Dry-Bulb Temperature Range Modifier Schedule Name
  ASHRAETau,                              ! Solar Model Indicator
  ,                                       ! Beam Solar Day Schedule Name
  ,                                       ! Diffuse Solar Day Schedule Name
  0.446,                                  ! ASHRAE Taub {dimensionless}
  2.091;                                  ! ASHRAE Taud {dimensionless}

OS:ComponentData,
  {d4c1020d-ab95-4205-aa1c-5651436d7940}, ! Handle
  Component Data 1,                       ! Name
  {1e08fff2-0ea6-4059-a32c-6b8981673995}, ! UUID
  {f156030f-0458-4ff1-a746-806b2474697b}, ! Version UUID
  1366307389,                             ! Creation Timestamp
  1366307389,                             ! Version Timestamp
  {edfc2199-33d8-48d8-913f-f9e587429876}; ! Name of Object 1

