
OS:Version,
  {65dec07f-5828-490e-95d4-47fe34d7bf62}, ! Handle
  0.9.3;                                  ! Version Identifier

OS:SizingPeriod:DesignDay,
  {bbb7e173-87c4-4d30-bfb6-992e58790323}, ! Handle
  Mcconnell Afb Ann Clg .4% Condns DP=>MDB, ! Name
  28,                                     ! Maximum Dry-Bulb Temperature {C}
  11.9,                                   ! Daily Dry-Bulb Temperature Range {deltaC}
  23.5,                                   ! Humidity Indicating Conditions at Maximum Dry-Bulb {BasedOnField A3}
  96449,                                  ! Barometric Pressure {Pa}
  5.6,                                    ! Wind Speed {m/s}
  190,                                    ! Wind Direction {deg}
  0,                                      ! Sky Clearness
  0,                                      ! Rain Indicator
  0,                                      ! Snow Indicator
  21,                                     ! Day of Month
  7,                                      ! Month
  SummerDesignDay,                        ! Day Type
  0,                                      ! Daylight Saving Time Indicator
  Dewpoint,                               ! Humidity Indicating Type
  ,                                       ! Humidity Indicating Day Schedule Name
  DefaultMultipliers,                     ! Dry-Bulb Temperature Range Modifier Type
  ,                                       ! Dry-Bulb Temperature Range Modifier Schedule Name
  ASHRAETau,                              ! Solar Model Indicator
  ,                                       ! Beam Solar Day Schedule Name
  ,                                       ! Diffuse Solar Day Schedule Name
  0.419,                                  ! ASHRAE Taub {dimensionless}
  2.206;                                  ! ASHRAE Taud {dimensionless}

OS:ComponentData,
  {13d3d275-eba2-4c13-be34-bf510ebac42c}, ! Handle
  Component Data 1,                       ! Name
  {42252a03-1e8e-444c-8243-8081232c8481}, ! UUID
  {6d5b097e-4b84-4d42-87ad-5d9cde97964f}, ! Version UUID
  1366307600,                             ! Creation Timestamp
  1366307600,                             ! Version Timestamp
  {bbb7e173-87c4-4d30-bfb6-992e58790323}; ! Name of Object 1

