
OS:Version,
  {f421fb37-b52b-40da-b599-82c811d9c8fc}, ! Handle
  0.9.3;                                  ! Version Identifier

OS:SizingPeriod:DesignDay,
  {b8625911-207d-409f-97b3-f6ec578c8c2b}, ! Handle
  Paso Robles Municipal Arpt Ann Htg 99.6% Condns DB, ! Name
  -2.9,                                   ! Maximum Dry-Bulb Temperature {C}
  0,                                      ! Daily Dry-Bulb Temperature Range {deltaC}
  -2.9,                                   ! Humidity Indicating Conditions at Maximum Dry-Bulb {BasedOnField A3}
  98428,                                  ! Barometric Pressure {Pa}
  1,                                      ! Wind Speed {m/s}
  60,                                     ! Wind Direction {deg}
  0,                                      ! Sky Clearness
  0,                                      ! Rain Indicator
  0,                                      ! Snow Indicator
  21,                                     ! Day of Month
  12,                                     ! Month
  WinterDesignDay,                        ! Day Type
  0,                                      ! Daylight Saving Time Indicator
  Wetbulb,                                ! Humidity Indicating Type
  ,                                       ! Humidity Indicating Day Schedule Name
  DefaultMultipliers,                     ! Dry-Bulb Temperature Range Modifier Type
  ,                                       ! Dry-Bulb Temperature Range Modifier Schedule Name
  ASHRAEClearSky;                         ! Solar Model Indicator

OS:ComponentData,
  {3c606075-f47a-46f5-a728-6cb5f1a43f20}, ! Handle
  Component Data 1,                       ! Name
  {0d1d6577-0274-4509-8af1-46eb85d73a16}, ! UUID
  {580b693e-ee99-4c14-95f8-85132c70643d}, ! Version UUID
  1366306533,                             ! Creation Timestamp
  1366306533,                             ! Version Timestamp
  {b8625911-207d-409f-97b3-f6ec578c8c2b}; ! Name of Object 1

