
OS:Version,
  {c7ca093c-c947-4b8d-b7ce-fad49a347b82}, ! Handle
  0.9.3;                                  ! Version Identifier

OS:SizingPeriod:DesignDay,
  {12d6f1e2-8bbd-4ce6-8b6b-19f9cb441431}, ! Handle
  Sarasota Bradenton Ann Hum_n 99% Condns DP=>MCDB, ! Name
  9.7,                                    ! Maximum Dry-Bulb Temperature {C}
  0,                                      ! Daily Dry-Bulb Temperature Range {deltaC}
  -0.2,                                   ! Humidity Indicating Conditions at Maximum Dry-Bulb {BasedOnField A3}
  101205,                                 ! Barometric Pressure {Pa}
  2.3,                                    ! Wind Speed {m/s}
  30,                                     ! Wind Direction {deg}
  0,                                      ! Sky Clearness
  0,                                      ! Rain Indicator
  0,                                      ! Snow Indicator
  21,                                     ! Day of Month
  1,                                      ! Month
  WinterDesignDay,                        ! Day Type
  0,                                      ! Daylight Saving Time Indicator
  Dewpoint,                               ! Humidity Indicating Type
  ,                                       ! Humidity Indicating Day Schedule Name
  DefaultMultipliers,                     ! Dry-Bulb Temperature Range Modifier Type
  ,                                       ! Dry-Bulb Temperature Range Modifier Schedule Name
  ASHRAEClearSky;                         ! Solar Model Indicator

OS:ComponentData,
  {58dbef7d-d5bc-45bf-882a-b49f24b952d8}, ! Handle
  Component Data 1,                       ! Name
  {a630ca8c-f9c0-4ef3-97cc-084cb04ad80b}, ! UUID
  {5a38347e-d49d-4630-b9e1-11064213e77a}, ! Version UUID
  1366306908,                             ! Creation Timestamp
  1366306908,                             ! Version Timestamp
  {12d6f1e2-8bbd-4ce6-8b6b-19f9cb441431}; ! Name of Object 1

