
OS:Version,
  {03f92ecd-ff69-4f59-aaa1-307d3a39b86b}, ! Handle
  0.9.3;                                  ! Version Identifier

OS:SizingPeriod:DesignDay,
  {d0e58e7d-28d2-471e-a4c4-18a12aae962f}, ! Handle
  New Orleans/Lakefront Ann Clg .4% Condns WB=>MDB, ! Name
  31.5,                                   ! Maximum Dry-Bulb Temperature {C}
  8.5,                                    ! Daily Dry-Bulb Temperature Range {deltaC}
  27.1,                                   ! Humidity Indicating Conditions at Maximum Dry-Bulb {BasedOnField A3}
  101289,                                 ! Barometric Pressure {Pa}
  3.4,                                    ! Wind Speed {m/s}
  0,                                      ! Wind Direction {deg}
  0,                                      ! Sky Clearness
  0,                                      ! Rain Indicator
  0,                                      ! Snow Indicator
  21,                                     ! Day of Month
  8,                                      ! Month
  SummerDesignDay,                        ! Day Type
  0,                                      ! Daylight Saving Time Indicator
  Wetbulb,                                ! Humidity Indicating Type
  ,                                       ! Humidity Indicating Day Schedule Name
  DefaultMultipliers,                     ! Dry-Bulb Temperature Range Modifier Type
  ,                                       ! Dry-Bulb Temperature Range Modifier Schedule Name
  ASHRAETau,                              ! Solar Model Indicator
  ,                                       ! Beam Solar Day Schedule Name
  ,                                       ! Diffuse Solar Day Schedule Name
  0.553,                                  ! ASHRAE Taub {dimensionless}
  1.821;                                  ! ASHRAE Taud {dimensionless}

