
OS:Version,
  {68a26688-44ca-4e63-894e-33591f038779}, ! Handle
  0.9.3;                                  ! Version Identifier

OS:SizingPeriod:DesignDay,
  {282bc839-e33d-4885-afb4-43f22b16627e}, ! Handle
  Traverse City Cherry Capital Ann Hum_n 99% Condns DP=>MCDB, ! Name
  -14.4,                                  ! Maximum Dry-Bulb Temperature {C}
  0,                                      ! Daily Dry-Bulb Temperature Range {deltaC}
  -18.9,                                  ! Humidity Indicating Conditions at Maximum Dry-Bulb {BasedOnField A3}
  99087,                                  ! Barometric Pressure {Pa}
  2.5,                                    ! Wind Speed {m/s}
  190,                                    ! Wind Direction {deg}
  0,                                      ! Sky Clearness
  0,                                      ! Rain Indicator
  0,                                      ! Snow Indicator
  21,                                     ! Day of Month
  1,                                      ! Month
  WinterDesignDay,                        ! Day Type
  0,                                      ! Daylight Saving Time Indicator
  Dewpoint,                               ! Humidity Indicating Type
  ,                                       ! Humidity Indicating Day Schedule Name
  DefaultMultipliers,                     ! Dry-Bulb Temperature Range Modifier Type
  ,                                       ! Dry-Bulb Temperature Range Modifier Schedule Name
  ASHRAEClearSky;                         ! Solar Model Indicator

OS:ComponentData,
  {9cd5ed90-c5b7-42a5-87a2-1e2f11f8d38a}, ! Handle
  Component Data 1,                       ! Name
  {ad69ad8b-d883-464f-90fe-f7d175f63d6a}, ! UUID
  {44b39de5-34e5-41a7-b1d0-1b623d94728b}, ! Version UUID
  1366308124,                             ! Creation Timestamp
  1366308124,                             ! Version Timestamp
  {282bc839-e33d-4885-afb4-43f22b16627e}; ! Name of Object 1

