
OS:Version,
  {a5938422-193e-45fd-a795-ec03427caf0e}, ! Handle
  0.9.3;                                  ! Version Identifier

OS:SizingPeriod:DesignDay,
  {f95eab6a-0295-4ba8-9bca-82ee0638a34c}, ! Handle
  Mason City Ann Hum_n 99.6% Condns DP=>MCDB, ! Name
  -25,                                    ! Maximum Dry-Bulb Temperature {C}
  0,                                      ! Daily Dry-Bulb Temperature Range {deltaC}
  -29.7,                                  ! Humidity Indicating Conditions at Maximum Dry-Bulb {BasedOnField A3}
  96958,                                  ! Barometric Pressure {Pa}
  5,                                      ! Wind Speed {m/s}
  300,                                    ! Wind Direction {deg}
  0,                                      ! Sky Clearness
  0,                                      ! Rain Indicator
  0,                                      ! Snow Indicator
  21,                                     ! Day of Month
  1,                                      ! Month
  WinterDesignDay,                        ! Day Type
  0,                                      ! Daylight Saving Time Indicator
  Dewpoint,                               ! Humidity Indicating Type
  ,                                       ! Humidity Indicating Day Schedule Name
  DefaultMultipliers,                     ! Dry-Bulb Temperature Range Modifier Type
  ,                                       ! Dry-Bulb Temperature Range Modifier Schedule Name
  ASHRAEClearSky;                         ! Solar Model Indicator

OS:ComponentData,
  {c6d90e14-6ffa-4352-a222-5af3fa2bf054}, ! Handle
  Component Data 1,                       ! Name
  {6476fc89-7347-4be3-820f-3aa94aedf9cd}, ! UUID
  {affc538c-bfb6-4ae5-9eb7-f2c152dfa859}, ! Version UUID
  1366307213,                             ! Creation Timestamp
  1366307213,                             ! Version Timestamp
  {f95eab6a-0295-4ba8-9bca-82ee0638a34c}; ! Name of Object 1

