
OS:Version,
  {67ed2470-2bad-45f4-bff5-dbbf7b7ee8bc}, ! Handle
  0.9.3;                                  ! Version Identifier

OS:SizingPeriod:DesignDay,
  {2ee1029f-4453-47af-8948-f15e8c53eea4}, ! Handle
  Marshfield Muni Ann Htg 99% Condns DB,  ! Name
  -22.1,                                  ! Maximum Dry-Bulb Temperature {C}
  0,                                      ! Daily Dry-Bulb Temperature Range {deltaC}
  -22.1,                                  ! Humidity Indicating Conditions at Maximum Dry-Bulb {BasedOnField A3}
  96738,                                  ! Barometric Pressure {Pa}
  2.5,                                    ! Wind Speed {m/s}
  280,                                    ! Wind Direction {deg}
  0,                                      ! Sky Clearness
  0,                                      ! Rain Indicator
  0,                                      ! Snow Indicator
  21,                                     ! Day of Month
  1,                                      ! Month
  WinterDesignDay,                        ! Day Type
  0,                                      ! Daylight Saving Time Indicator
  Wetbulb,                                ! Humidity Indicating Type
  ,                                       ! Humidity Indicating Day Schedule Name
  DefaultMultipliers,                     ! Dry-Bulb Temperature Range Modifier Type
  ,                                       ! Dry-Bulb Temperature Range Modifier Schedule Name
  ASHRAEClearSky;                         ! Solar Model Indicator

OS:ComponentData,
  {23a184cf-40c3-44d1-b8a4-9ea92bb4b82f}, ! Handle
  Component Data 1,                       ! Name
  {a9958b92-12e4-4a7c-be91-8e2d9077125e}, ! UUID
  {85d3a01c-4321-4121-835e-a79c8a0c6618}, ! Version UUID
  1366311541,                             ! Creation Timestamp
  1366311541,                             ! Version Timestamp
  {2ee1029f-4453-47af-8948-f15e8c53eea4}; ! Name of Object 1

