
OS:Version,
  {3af71f29-088f-47fb-84bc-c906018207d7}, ! Handle
  0.9.3;                                  ! Version Identifier

OS:SizingPeriod:DesignDay,
  {e7f00dad-200a-478b-b33f-63d1980acefe}, ! Handle
  SALEM Ann Hum_n 99% Condns DP=>MCDB,    ! Name
  -1,                                     ! Maximum Dry-Bulb Temperature {C}
  0,                                      ! Daily Dry-Bulb Temperature Range {deltaC}
  -7.5,                                   ! Humidity Indicating Conditions at Maximum Dry-Bulb {BasedOnField A3}
  100594,                                 ! Barometric Pressure {Pa}
  2.1,                                    ! Wind Speed {m/s}
  0,                                      ! Wind Direction {deg}
  0,                                      ! Sky Clearness
  0,                                      ! Rain Indicator
  0,                                      ! Snow Indicator
  21,                                     ! Day of Month
  12,                                     ! Month
  WinterDesignDay,                        ! Day Type
  0,                                      ! Daylight Saving Time Indicator
  Dewpoint,                               ! Humidity Indicating Type
  ,                                       ! Humidity Indicating Day Schedule Name
  DefaultMultipliers,                     ! Dry-Bulb Temperature Range Modifier Type
  ,                                       ! Dry-Bulb Temperature Range Modifier Schedule Name
  ASHRAEClearSky;                         ! Solar Model Indicator

OS:ComponentData,
  {4d0d0b12-6a7c-4936-9365-c24e3860c0d5}, ! Handle
  Component Data 1,                       ! Name
  {1d136513-5e15-4823-92dc-d3ba81550b70}, ! UUID
  {fd28de88-afe6-4f12-ab9b-afc4ba36f9c8}, ! Version UUID
  1366310117,                             ! Creation Timestamp
  1366310117,                             ! Version Timestamp
  {e7f00dad-200a-478b-b33f-63d1980acefe}; ! Name of Object 1

