
OS:Version,
  {14978e80-2ead-4805-a58a-b42d1fce1a4e}, ! Handle
  0.9.3;                                  ! Version Identifier

OS:SizingPeriod:DesignDay,
  {16a9f28f-b5c1-4f57-b69f-ed43db8b94ab}, ! Handle
  Wink Winkler County Ap Ann Htg 99.6% Condns DB, ! Name
  -7,                                     ! Maximum Dry-Bulb Temperature {C}
  0,                                      ! Daily Dry-Bulb Temperature Range {deltaC}
  -7,                                     ! Humidity Indicating Conditions at Maximum Dry-Bulb {BasedOnField A3}
  91455,                                  ! Barometric Pressure {Pa}
  2.3,                                    ! Wind Speed {m/s}
  350,                                    ! Wind Direction {deg}
  0,                                      ! Sky Clearness
  0,                                      ! Rain Indicator
  0,                                      ! Snow Indicator
  21,                                     ! Day of Month
  12,                                     ! Month
  WinterDesignDay,                        ! Day Type
  0,                                      ! Daylight Saving Time Indicator
  Wetbulb,                                ! Humidity Indicating Type
  ,                                       ! Humidity Indicating Day Schedule Name
  DefaultMultipliers,                     ! Dry-Bulb Temperature Range Modifier Type
  ,                                       ! Dry-Bulb Temperature Range Modifier Schedule Name
  ASHRAEClearSky;                         ! Solar Model Indicator

OS:ComponentData,
  {9280d633-bd89-4e02-a8a4-c660d3a5dae5}, ! Handle
  Component Data 1,                       ! Name
  {13413374-3961-482a-9424-a05f09150574}, ! UUID
  {341f9fd9-79c3-463a-b673-31fbd9bd3e36}, ! Version UUID
  1366310939,                             ! Creation Timestamp
  1366310939,                             ! Version Timestamp
  {16a9f28f-b5c1-4f57-b69f-ed43db8b94ab}; ! Name of Object 1

