
OS:Version,
  {7aabd5ec-3641-4208-bba6-976207b20d13}, ! Handle
  0.9.3;                                  ! Version Identifier

OS:SizingPeriod:DesignDay,
  {b6799653-5ce4-4d21-a67a-4688538d89ac}, ! Handle
  Nashville Ann Clg 2% Condns DP=>MDB,    ! Name
  27.1,                                   ! Maximum Dry-Bulb Temperature {C}
  10.2,                                   ! Daily Dry-Bulb Temperature Range {deltaC}
  22.9,                                   ! Humidity Indicating Conditions at Maximum Dry-Bulb {BasedOnField A3}
  99181,                                  ! Barometric Pressure {Pa}
  3.5,                                    ! Wind Speed {m/s}
  230,                                    ! Wind Direction {deg}
  0,                                      ! Sky Clearness
  0,                                      ! Rain Indicator
  0,                                      ! Snow Indicator
  21,                                     ! Day of Month
  7,                                      ! Month
  SummerDesignDay,                        ! Day Type
  0,                                      ! Daylight Saving Time Indicator
  Dewpoint,                               ! Humidity Indicating Type
  ,                                       ! Humidity Indicating Day Schedule Name
  DefaultMultipliers,                     ! Dry-Bulb Temperature Range Modifier Type
  ,                                       ! Dry-Bulb Temperature Range Modifier Schedule Name
  ASHRAETau,                              ! Solar Model Indicator
  ,                                       ! Beam Solar Day Schedule Name
  ,                                       ! Diffuse Solar Day Schedule Name
  0.524,                                  ! ASHRAE Taub {dimensionless}
  1.855;                                  ! ASHRAE Taud {dimensionless}

OS:ComponentData,
  {d76507f9-67a0-4b99-b9c2-ea03c126d08b}, ! Handle
  Component Data 1,                       ! Name
  {eff1b832-3fd7-4ce1-8691-7d8b26e004e9}, ! UUID
  {13fe6d38-e487-4b63-a452-7487ce195029}, ! Version UUID
  1366310539,                             ! Creation Timestamp
  1366310539,                             ! Version Timestamp
  {b6799653-5ce4-4d21-a67a-4688538d89ac}; ! Name of Object 1

