
OS:Version,
  {219d50b5-d66f-4764-a451-29f5ded8a932}, ! Handle
  0.9.3;                                  ! Version Identifier

OS:SizingPeriod:DesignDay,
  {ceb9dbe3-4bf7-43cf-a69d-21d57f1a00da}, ! Handle
  Yakutat Ann Htg Wind 99.6% Condns WS=>MCDB, ! Name
  4.2,                                    ! Maximum Dry-Bulb Temperature {C}
  0,                                      ! Daily Dry-Bulb Temperature Range {deltaC}
  4.2,                                    ! Humidity Indicating Conditions at Maximum Dry-Bulb {BasedOnField A3}
  101217,                                 ! Barometric Pressure {Pa}
  12.4,                                   ! Wind Speed {m/s}
  100,                                    ! Wind Direction {deg}
  0,                                      ! Sky Clearness
  0,                                      ! Rain Indicator
  0,                                      ! Snow Indicator
  21,                                     ! Day of Month
  1,                                      ! Month
  WinterDesignDay,                        ! Day Type
  0,                                      ! Daylight Saving Time Indicator
  Wetbulb,                                ! Humidity Indicating Type
  ,                                       ! Humidity Indicating Day Schedule Name
  DefaultMultipliers,                     ! Dry-Bulb Temperature Range Modifier Type
  ,                                       ! Dry-Bulb Temperature Range Modifier Schedule Name
  ASHRAEClearSky;                         ! Solar Model Indicator

OS:ComponentData,
  {1e003b59-0794-49d7-a08a-f042612bca9a}, ! Handle
  Component Data 1,                       ! Name
  {e1fe4cf9-48d1-4ae7-ab2d-22b2cd3d1b13}, ! UUID
  {320d255c-63f8-47dd-95b7-9184df9d89f1}, ! Version UUID
  1366305622,                             ! Creation Timestamp
  1366305622,                             ! Version Timestamp
  {ceb9dbe3-4bf7-43cf-a69d-21d57f1a00da}; ! Name of Object 1

