
OS:Version,
  {7c387c24-fc01-48b9-abbd-dc9e6394f3ea}, ! Handle
  0.9.3;                                  ! Version Identifier

OS:SizingPeriod:DesignDay,
  {f456d8c6-2bac-43f0-8385-e6e4973eb0bc}, ! Handle
  SAN_FRANCISCO Ann Hum_n 99.6% Condns DP=>MCDB, ! Name
  10.7,                                   ! Maximum Dry-Bulb Temperature {C}
  0,                                      ! Daily Dry-Bulb Temperature Range {deltaC}
  -3.7,                                   ! Humidity Indicating Conditions at Maximum Dry-Bulb {BasedOnField A3}
  101265,                                 ! Barometric Pressure {Pa}
  2.2,                                    ! Wind Speed {m/s}
  150,                                    ! Wind Direction {deg}
  0,                                      ! Sky Clearness
  0,                                      ! Rain Indicator
  0,                                      ! Snow Indicator
  21,                                     ! Day of Month
  1,                                      ! Month
  WinterDesignDay,                        ! Day Type
  0,                                      ! Daylight Saving Time Indicator
  Dewpoint,                               ! Humidity Indicating Type
  ,                                       ! Humidity Indicating Day Schedule Name
  DefaultMultipliers,                     ! Dry-Bulb Temperature Range Modifier Type
  ,                                       ! Dry-Bulb Temperature Range Modifier Schedule Name
  ASHRAEClearSky;                         ! Solar Model Indicator

OS:ComponentData,
  {bb2d79a8-9b83-47b0-8f16-871f945fe287}, ! Handle
  Component Data 1,                       ! Name
  {421636f7-0745-4a52-a2bf-9c8655ff63fd}, ! UUID
  {af323c09-22cd-4365-bac3-47a2d0fd8163}, ! Version UUID
  1366306589,                             ! Creation Timestamp
  1366306589,                             ! Version Timestamp
  {f456d8c6-2bac-43f0-8385-e6e4973eb0bc}; ! Name of Object 1

