
OS:Version,
  {3d482bfb-0b49-4383-92d8-e9ade94bd441}, ! Handle
  0.9.3;                                  ! Version Identifier

OS:SizingPeriod:DesignDay,
  {f0fe466b-179d-4981-a11d-f195b80284a8}, ! Handle
  Whidbey Island NAS Ann Clg 2% Condns Enth=>MDB, ! Name
  18.8,                                   ! Maximum Dry-Bulb Temperature {C}
  7.8,                                    ! Daily Dry-Bulb Temperature Range {deltaC}
  43500,                                  ! Humidity Indicating Conditions at Maximum Dry-Bulb {BasedOnField A3}
  101205,                                 ! Barometric Pressure {Pa}
  3,                                      ! Wind Speed {m/s}
  260,                                    ! Wind Direction {deg}
  0,                                      ! Sky Clearness
  0,                                      ! Rain Indicator
  0,                                      ! Snow Indicator
  21,                                     ! Day of Month
  8,                                      ! Month
  SummerDesignDay,                        ! Day Type
  0,                                      ! Daylight Saving Time Indicator
  Enthalpy,                               ! Humidity Indicating Type
  ,                                       ! Humidity Indicating Day Schedule Name
  DefaultMultipliers,                     ! Dry-Bulb Temperature Range Modifier Type
  ,                                       ! Dry-Bulb Temperature Range Modifier Schedule Name
  ASHRAETau,                              ! Solar Model Indicator
  ,                                       ! Beam Solar Day Schedule Name
  ,                                       ! Diffuse Solar Day Schedule Name
  0.356,                                  ! ASHRAE Taub {dimensionless}
  2.524;                                  ! ASHRAE Taud {dimensionless}

OS:ComponentData,
  {9d6604d1-d817-47d3-a622-783d98535c4f}, ! Handle
  Component Data 1,                       ! Name
  {0491780c-079f-4ca4-9fa5-b84982f6e381}, ! UUID
  {aed264dc-4e54-4a57-907a-5298b6cc033a}, ! Version UUID
  1366311433,                             ! Creation Timestamp
  1366311433,                             ! Version Timestamp
  {f0fe466b-179d-4981-a11d-f195b80284a8}; ! Name of Object 1

