
OS:Version,
  {82eca51b-7a9d-4d39-809c-3f16ea65a442}, ! Handle
  0.9.3;                                  ! Version Identifier

OS:SizingPeriod:DesignDay,
  {3076ccef-ac1f-465c-810e-86a037c7feca}, ! Handle
  Springfield Hartnes Ann Clg 2% Condns WB=>MDB, ! Name
  25.8,                                   ! Maximum Dry-Bulb Temperature {C}
  12.4,                                   ! Daily Dry-Bulb Temperature Range {deltaC}
  21.8,                                   ! Humidity Indicating Conditions at Maximum Dry-Bulb {BasedOnField A3}
  99228,                                  ! Barometric Pressure {Pa}
  3.9,                                    ! Wind Speed {m/s}
  240,                                    ! Wind Direction {deg}
  0,                                      ! Sky Clearness
  0,                                      ! Rain Indicator
  0,                                      ! Snow Indicator
  21,                                     ! Day of Month
  7,                                      ! Month
  SummerDesignDay,                        ! Day Type
  0,                                      ! Daylight Saving Time Indicator
  Wetbulb,                                ! Humidity Indicating Type
  ,                                       ! Humidity Indicating Day Schedule Name
  DefaultMultipliers,                     ! Dry-Bulb Temperature Range Modifier Type
  ,                                       ! Dry-Bulb Temperature Range Modifier Schedule Name
  ASHRAETau,                              ! Solar Model Indicator
  ,                                       ! Beam Solar Day Schedule Name
  ,                                       ! Diffuse Solar Day Schedule Name
  0.443,                                  ! ASHRAE Taub {dimensionless}
  2.072;                                  ! ASHRAE Taud {dimensionless}

OS:ComponentData,
  {22b6b43d-6a98-4206-a751-aaccdfeab8b6}, ! Handle
  Component Data 1,                       ! Name
  {ca68be80-5a32-4e1e-a039-97524712cb26}, ! UUID
  {d3a0be27-0811-493c-9b18-a24abb706b91}, ! Version UUID
  1366311262,                             ! Creation Timestamp
  1366311262,                             ! Version Timestamp
  {3076ccef-ac1f-465c-810e-86a037c7feca}; ! Name of Object 1

