
OS:Version,
  {37af57bf-a68d-4388-9e3e-758e3bc33fc8}, ! Handle
  0.9.3;                                  ! Version Identifier

OS:SizingPeriod:DesignDay,
  {6ffd3147-997b-4cbd-ae1c-676cb50d2d71}, ! Handle
  Pensacola Regional Ap Ann Htg Wind 99.6% Condns WS=>MCDB, ! Name
  12.9,                                   ! Maximum Dry-Bulb Temperature {C}
  0,                                      ! Daily Dry-Bulb Temperature Range {deltaC}
  12.9,                                   ! Humidity Indicating Conditions at Maximum Dry-Bulb {BasedOnField A3}
  100917,                                 ! Barometric Pressure {Pa}
  10.1,                                   ! Wind Speed {m/s}
  0,                                      ! Wind Direction {deg}
  0,                                      ! Sky Clearness
  0,                                      ! Rain Indicator
  0,                                      ! Snow Indicator
  21,                                     ! Day of Month
  1,                                      ! Month
  WinterDesignDay,                        ! Day Type
  0,                                      ! Daylight Saving Time Indicator
  Wetbulb,                                ! Humidity Indicating Type
  ,                                       ! Humidity Indicating Day Schedule Name
  DefaultMultipliers,                     ! Dry-Bulb Temperature Range Modifier Type
  ,                                       ! Dry-Bulb Temperature Range Modifier Schedule Name
  ASHRAEClearSky;                         ! Solar Model Indicator

OS:ComponentData,
  {98f6cf12-68f1-4db8-941e-1d0e21f44c16}, ! Handle
  Component Data 1,                       ! Name
  {d5852def-65b3-40ba-90de-1d198ae15927}, ! UUID
  {d966c575-f53b-4ef2-b47d-64368ec5c766}, ! Version UUID
  1366306904,                             ! Creation Timestamp
  1366306904,                             ! Version Timestamp
  {6ffd3147-997b-4cbd-ae1c-676cb50d2d71}; ! Name of Object 1

