
OS:Version,
  {38b0e5f2-5c06-4825-9755-21c79d800b08}, ! Handle
  0.9.3;                                  ! Version Identifier

OS:SizingPeriod:DesignDay,
  {2a9ac1c0-d569-43a0-9eaf-802df8decf10}, ! Handle
  Macon Middle Ga Regional Ap Ann Htg Wind 99.6% Condns WS=>MCDB, ! Name
  9.3,                                    ! Maximum Dry-Bulb Temperature {C}
  0,                                      ! Daily Dry-Bulb Temperature Range {deltaC}
  9.3,                                    ! Humidity Indicating Conditions at Maximum Dry-Bulb {BasedOnField A3}
  100034,                                 ! Barometric Pressure {Pa}
  9.3,                                    ! Wind Speed {m/s}
  300,                                    ! Wind Direction {deg}
  0,                                      ! Sky Clearness
  0,                                      ! Rain Indicator
  0,                                      ! Snow Indicator
  21,                                     ! Day of Month
  1,                                      ! Month
  WinterDesignDay,                        ! Day Type
  0,                                      ! Daylight Saving Time Indicator
  Wetbulb,                                ! Humidity Indicating Type
  ,                                       ! Humidity Indicating Day Schedule Name
  DefaultMultipliers,                     ! Dry-Bulb Temperature Range Modifier Type
  ,                                       ! Dry-Bulb Temperature Range Modifier Schedule Name
  ASHRAEClearSky;                         ! Solar Model Indicator

OS:ComponentData,
  {32711bb8-6731-4401-b562-6e0f80286e97}, ! Handle
  Component Data 1,                       ! Name
  {8cbe42fe-dce0-4221-ae8a-b3c95661bbb2}, ! UUID
  {f0e515bb-7a2f-44d5-8892-1fc3eca2b5d0}, ! Version UUID
  1366307023,                             ! Creation Timestamp
  1366307023,                             ! Version Timestamp
  {2a9ac1c0-d569-43a0-9eaf-802df8decf10}; ! Name of Object 1

