
OS:Version,
  {ab4a4bcd-9ab7-4f4c-9029-c7aca355fbc8}, ! Handle
  0.9.3;                                  ! Version Identifier

OS:SizingPeriod:DesignDay,
  {70fca59a-dbae-479e-b93e-080485439d56}, ! Handle
  Pine Bluff Faa Ap Ann Clg .4% Condns DP=>MDB, ! Name
  29.9,                                   ! Maximum Dry-Bulb Temperature {C}
  10.3,                                   ! Daily Dry-Bulb Temperature Range {deltaC}
  25.2,                                   ! Humidity Indicating Conditions at Maximum Dry-Bulb {BasedOnField A3}
  100570,                                 ! Barometric Pressure {Pa}
  2.9,                                    ! Wind Speed {m/s}
  210,                                    ! Wind Direction {deg}
  0,                                      ! Sky Clearness
  0,                                      ! Rain Indicator
  0,                                      ! Snow Indicator
  21,                                     ! Day of Month
  7,                                      ! Month
  SummerDesignDay,                        ! Day Type
  0,                                      ! Daylight Saving Time Indicator
  Dewpoint,                               ! Humidity Indicating Type
  ,                                       ! Humidity Indicating Day Schedule Name
  DefaultMultipliers,                     ! Dry-Bulb Temperature Range Modifier Type
  ,                                       ! Dry-Bulb Temperature Range Modifier Schedule Name
  ASHRAETau,                              ! Solar Model Indicator
  ,                                       ! Beam Solar Day Schedule Name
  ,                                       ! Diffuse Solar Day Schedule Name
  0.517,                                  ! ASHRAE Taub {dimensionless}
  1.899;                                  ! ASHRAE Taud {dimensionless}

OS:ComponentData,
  {48d83625-d105-4bf4-b13e-96ee228591f5}, ! Handle
  Component Data 1,                       ! Name
  {942497bd-0d36-4941-b2aa-50cf328259a9}, ! UUID
  {3d2bc68d-a943-425b-8b05-eb2558146792}, ! Version UUID
  1366306241,                             ! Creation Timestamp
  1366306241,                             ! Version Timestamp
  {70fca59a-dbae-479e-b93e-080485439d56}; ! Name of Object 1

