
OS:Version,
  {686ce3e1-289d-4f04-8670-716caae8b8c7}, ! Handle
  0.9.3;                                  ! Version Identifier

OS:SizingPeriod:DesignDay,
  {01cca3b1-2ef7-44e5-81e1-39c32f9195b5}, ! Handle
  Mccomb Pike County Ap Ann Clg .4% Condns DP=>MDB, ! Name
  28.4,                                   ! Maximum Dry-Bulb Temperature {C}
  10.8,                                   ! Daily Dry-Bulb Temperature Range {deltaC}
  25.1,                                   ! Humidity Indicating Conditions at Maximum Dry-Bulb {BasedOnField A3}
  99820,                                  ! Barometric Pressure {Pa}
  2.9,                                    ! Wind Speed {m/s}
  250,                                    ! Wind Direction {deg}
  0,                                      ! Sky Clearness
  0,                                      ! Rain Indicator
  0,                                      ! Snow Indicator
  21,                                     ! Day of Month
  7,                                      ! Month
  SummerDesignDay,                        ! Day Type
  0,                                      ! Daylight Saving Time Indicator
  Dewpoint,                               ! Humidity Indicating Type
  ,                                       ! Humidity Indicating Day Schedule Name
  DefaultMultipliers,                     ! Dry-Bulb Temperature Range Modifier Type
  ,                                       ! Dry-Bulb Temperature Range Modifier Schedule Name
  ASHRAETau,                              ! Solar Model Indicator
  ,                                       ! Beam Solar Day Schedule Name
  ,                                       ! Diffuse Solar Day Schedule Name
  0.539,                                  ! ASHRAE Taub {dimensionless}
  1.852;                                  ! ASHRAE Taud {dimensionless}

OS:ComponentData,
  {ea6e47a5-6d49-4c25-a791-cdeb77bfd304}, ! Handle
  Component Data 1,                       ! Name
  {f714c311-3920-4923-959c-c78cda69f9cb}, ! UUID
  {ae89086f-ad9e-4ac2-9f92-68f51e17de14}, ! Version UUID
  1366308657,                             ! Creation Timestamp
  1366308657,                             ! Version Timestamp
  {01cca3b1-2ef7-44e5-81e1-39c32f9195b5}; ! Name of Object 1

