
OS:Version,
  {5306fda4-817f-4e7f-9acc-c5e95c9ca1d7}, ! Handle
  0.9.3;                                  ! Version Identifier

OS:SizingPeriod:DesignDay,
  {3d871376-3a7b-471b-a90c-bd234b2d4c9d}, ! Handle
  Quillayute State Airport Ann Clg .4% Condns WB=>MDB, ! Name
  24.6,                                   ! Maximum Dry-Bulb Temperature {C}
  9.8,                                    ! Daily Dry-Bulb Temperature Range {deltaC}
  18.1,                                   ! Humidity Indicating Conditions at Maximum Dry-Bulb {BasedOnField A3}
  100666,                                 ! Barometric Pressure {Pa}
  3.7,                                    ! Wind Speed {m/s}
  240,                                    ! Wind Direction {deg}
  0,                                      ! Sky Clearness
  0,                                      ! Rain Indicator
  0,                                      ! Snow Indicator
  21,                                     ! Day of Month
  8,                                      ! Month
  SummerDesignDay,                        ! Day Type
  0,                                      ! Daylight Saving Time Indicator
  Wetbulb,                                ! Humidity Indicating Type
  ,                                       ! Humidity Indicating Day Schedule Name
  DefaultMultipliers,                     ! Dry-Bulb Temperature Range Modifier Type
  ,                                       ! Dry-Bulb Temperature Range Modifier Schedule Name
  ASHRAETau,                              ! Solar Model Indicator
  ,                                       ! Beam Solar Day Schedule Name
  ,                                       ! Diffuse Solar Day Schedule Name
  0.351,                                  ! ASHRAE Taub {dimensionless}
  2.578;                                  ! ASHRAE Taud {dimensionless}

OS:ComponentData,
  {51585dd9-cde5-49e5-bf5a-3e0b5988a2db}, ! Handle
  Component Data 1,                       ! Name
  {b0aa2efb-d28d-47c3-a443-639b5ce8a3e1}, ! UUID
  {fb354462-296e-40f8-bf24-de4feec4f85b}, ! Version UUID
  1366311342,                             ! Creation Timestamp
  1366311342,                             ! Version Timestamp
  {3d871376-3a7b-471b-a90c-bd234b2d4c9d}; ! Name of Object 1

