
OS:Version,
  {d63a29ca-957b-4a09-a9e4-5eee88316563}, ! Handle
  0.9.3;                                  ! Version Identifier

OS:SizingPeriod:DesignDay,
  {2f62dfed-fa0f-4f2c-af7c-1a47e3581e54}, ! Handle
  Siloam Spring Awos Ann Htg Wind 99% Condns WS=>MCDB, ! Name
  10.3,                                   ! Maximum Dry-Bulb Temperature {C}
  0,                                      ! Daily Dry-Bulb Temperature Range {deltaC}
  10.3,                                   ! Humidity Indicating Conditions at Maximum Dry-Bulb {BasedOnField A3}
  97028,                                  ! Barometric Pressure {Pa}
  10.2,                                   ! Wind Speed {m/s}
  10,                                     ! Wind Direction {deg}
  0,                                      ! Sky Clearness
  0,                                      ! Rain Indicator
  0,                                      ! Snow Indicator
  21,                                     ! Day of Month
  1,                                      ! Month
  WinterDesignDay,                        ! Day Type
  0,                                      ! Daylight Saving Time Indicator
  Wetbulb,                                ! Humidity Indicating Type
  ,                                       ! Humidity Indicating Day Schedule Name
  DefaultMultipliers,                     ! Dry-Bulb Temperature Range Modifier Type
  ,                                       ! Dry-Bulb Temperature Range Modifier Schedule Name
  ASHRAEClearSky;                         ! Solar Model Indicator

OS:ComponentData,
  {4cc2e1b7-de40-43b1-bf3c-b3f5c2d28985}, ! Handle
  Component Data 1,                       ! Name
  {10ca33ec-3c76-4cd9-a83f-77fef84dc04c}, ! UUID
  {554d7d5f-5bab-4eff-9cdb-bad71776c52b}, ! Version UUID
  1366306246,                             ! Creation Timestamp
  1366306246,                             ! Version Timestamp
  {2f62dfed-fa0f-4f2c-af7c-1a47e3581e54}; ! Name of Object 1

