
OS:Version,
  {809559ad-b356-46e7-a649-1eb809566ca6}, ! Handle
  0.9.3;                                  ! Version Identifier

OS:SizingPeriod:DesignDay,
  {6ace20d0-50ea-445a-95d7-bc6bbb074e11}, ! Handle
  Reading Spaatz Field Ann Htg Wind 99.6% Condns WS=>MCDB, ! Name
  0.7,                                    ! Maximum Dry-Bulb Temperature {C}
  0,                                      ! Daily Dry-Bulb Temperature Range {deltaC}
  0.7,                                    ! Humidity Indicating Conditions at Maximum Dry-Bulb {BasedOnField A3}
  100082,                                 ! Barometric Pressure {Pa}
  11.4,                                   ! Wind Speed {m/s}
  310,                                    ! Wind Direction {deg}
  0,                                      ! Sky Clearness
  0,                                      ! Rain Indicator
  0,                                      ! Snow Indicator
  21,                                     ! Day of Month
  1,                                      ! Month
  WinterDesignDay,                        ! Day Type
  0,                                      ! Daylight Saving Time Indicator
  Wetbulb,                                ! Humidity Indicating Type
  ,                                       ! Humidity Indicating Day Schedule Name
  DefaultMultipliers,                     ! Dry-Bulb Temperature Range Modifier Type
  ,                                       ! Dry-Bulb Temperature Range Modifier Schedule Name
  ASHRAEClearSky;                         ! Solar Model Indicator

OS:ComponentData,
  {9bc8ccac-a221-464e-981f-27710f79666c}, ! Handle
  Component Data 1,                       ! Name
  {933feedc-3471-4b41-958b-dffc0f0229b5}, ! UUID
  {b2a10a9a-12a3-4dbe-9e4e-72d0cff2ff78}, ! Version UUID
  1366310249,                             ! Creation Timestamp
  1366310249,                             ! Version Timestamp
  {6ace20d0-50ea-445a-95d7-bc6bbb074e11}; ! Name of Object 1

