
OS:Version,
  {f5feea58-b284-41b6-80c5-632b4d9c1a41}, ! Handle
  0.9.3;                                  ! Version Identifier

OS:SizingPeriod:DesignDay,
  {71514bdd-7623-4fee-9cbf-761ee0efdfb1}, ! Handle
  Sault Ste Marie Sanderson Fie Ann Htg Wind 99% Condns WS=>MCDB, ! Name
  -6.5,                                   ! Maximum Dry-Bulb Temperature {C}
  0,                                      ! Daily Dry-Bulb Temperature Range {deltaC}
  -6.5,                                   ! Humidity Indicating Conditions at Maximum Dry-Bulb {BasedOnField A3}
  98722,                                  ! Barometric Pressure {Pa}
  10.2,                                   ! Wind Speed {m/s}
  90,                                     ! Wind Direction {deg}
  0,                                      ! Sky Clearness
  0,                                      ! Rain Indicator
  0,                                      ! Snow Indicator
  21,                                     ! Day of Month
  1,                                      ! Month
  WinterDesignDay,                        ! Day Type
  0,                                      ! Daylight Saving Time Indicator
  Wetbulb,                                ! Humidity Indicating Type
  ,                                       ! Humidity Indicating Day Schedule Name
  DefaultMultipliers,                     ! Dry-Bulb Temperature Range Modifier Type
  ,                                       ! Dry-Bulb Temperature Range Modifier Schedule Name
  ASHRAEClearSky;                         ! Solar Model Indicator

OS:ComponentData,
  {31e2bb87-75fc-4d61-9640-9616aeee4ce6}, ! Handle
  Component Data 1,                       ! Name
  {6225f218-e43f-493b-9034-caa8b6462780}, ! UUID
  {ca27f406-d571-4ccd-897a-c3f4eeeae78e}, ! Version UUID
  1366308105,                             ! Creation Timestamp
  1366308105,                             ! Version Timestamp
  {71514bdd-7623-4fee-9cbf-761ee0efdfb1}; ! Name of Object 1

