
OS:Version,
  {c39e8014-f9df-48a8-ac27-82d54412efdd}, ! Handle
  0.9.3;                                  ! Version Identifier

OS:SizingPeriod:DesignDay,
  {b32468e3-02d5-4314-b60c-24d1bcb3ab35}, ! Handle
  Mobridge Ann Clg .4% Condns WB=>MDB,    ! Name
  30.4,                                   ! Maximum Dry-Bulb Temperature {C}
  12.5,                                   ! Daily Dry-Bulb Temperature Range {deltaC}
  23.8,                                   ! Humidity Indicating Conditions at Maximum Dry-Bulb {BasedOnField A3}
  95369,                                  ! Barometric Pressure {Pa}
  5.7,                                    ! Wind Speed {m/s}
  150,                                    ! Wind Direction {deg}
  0,                                      ! Sky Clearness
  0,                                      ! Rain Indicator
  0,                                      ! Snow Indicator
  21,                                     ! Day of Month
  7,                                      ! Month
  SummerDesignDay,                        ! Day Type
  0,                                      ! Daylight Saving Time Indicator
  Wetbulb,                                ! Humidity Indicating Type
  ,                                       ! Humidity Indicating Day Schedule Name
  DefaultMultipliers,                     ! Dry-Bulb Temperature Range Modifier Type
  ,                                       ! Dry-Bulb Temperature Range Modifier Schedule Name
  ASHRAETau,                              ! Solar Model Indicator
  ,                                       ! Beam Solar Day Schedule Name
  ,                                       ! Diffuse Solar Day Schedule Name
  0.406,                                  ! ASHRAE Taub {dimensionless}
  2.187;                                  ! ASHRAE Taud {dimensionless}

OS:ComponentData,
  {332f1d69-69cf-4fd5-9f82-bcea791e4852}, ! Handle
  Component Data 1,                       ! Name
  {2f0096c2-0175-4d97-8f7b-74363db6b66a}, ! UUID
  {f376eeca-d798-4a74-aa94-22555a8e1175}, ! Version UUID
  1366310418,                             ! Creation Timestamp
  1366310418,                             ! Version Timestamp
  {b32468e3-02d5-4314-b60c-24d1bcb3ab35}; ! Name of Object 1

