
OS:Version,
  {aa754d2d-a0b3-441f-a9ca-58fc290c53e2}, ! Handle
  0.9.3;                                  ! Version Identifier

OS:SizingPeriod:DesignDay,
  {1eebac35-3ead-48b4-a721-263f29a82458}, ! Handle
  Truth Or Consequences Muni Ap Ann Clg .4% Condns DP=>MDB, ! Name
  21.1,                                   ! Maximum Dry-Bulb Temperature {C}
  13.9,                                   ! Daily Dry-Bulb Temperature Range {deltaC}
  17.2,                                   ! Humidity Indicating Conditions at Maximum Dry-Bulb {BasedOnField A3}
  84784,                                  ! Barometric Pressure {Pa}
  4.6,                                    ! Wind Speed {m/s}
  170,                                    ! Wind Direction {deg}
  0,                                      ! Sky Clearness
  0,                                      ! Rain Indicator
  0,                                      ! Snow Indicator
  21,                                     ! Day of Month
  7,                                      ! Month
  SummerDesignDay,                        ! Day Type
  0,                                      ! Daylight Saving Time Indicator
  Dewpoint,                               ! Humidity Indicating Type
  ,                                       ! Humidity Indicating Day Schedule Name
  DefaultMultipliers,                     ! Dry-Bulb Temperature Range Modifier Type
  ,                                       ! Dry-Bulb Temperature Range Modifier Schedule Name
  ASHRAETau,                              ! Solar Model Indicator
  ,                                       ! Beam Solar Day Schedule Name
  ,                                       ! Diffuse Solar Day Schedule Name
  0.543,                                  ! ASHRAE Taub {dimensionless}
  1.689;                                  ! ASHRAE Taud {dimensionless}

OS:ComponentData,
  {3ae0b9a1-eeac-4b6b-8746-49df5c06bb22}, ! Handle
  Component Data 1,                       ! Name
  {8ce3d1f3-0c3b-4430-87a8-a4c97d7de4c3}, ! UUID
  {1d6caa1b-870b-4cfe-bc26-ccc8ed8b3670}, ! Version UUID
  1366309449,                             ! Creation Timestamp
  1366309449,                             ! Version Timestamp
  {1eebac35-3ead-48b4-a721-263f29a82458}; ! Name of Object 1

