
OS:Version,
  {2c01492e-1773-4295-b9ff-59cd7ce1d7b7}, ! Handle
  0.9.3;                                  ! Version Identifier

OS:SizingPeriod:DesignDay,
  {b8cd58c2-3835-46b9-a20b-09d4de544cd8}, ! Handle
  Wenatchee Pangborn Ann Htg 99.6% Condns DB, ! Name
  -14.4,                                  ! Maximum Dry-Bulb Temperature {C}
  0,                                      ! Daily Dry-Bulb Temperature Range {deltaC}
  -14.4,                                  ! Humidity Indicating Conditions at Maximum Dry-Bulb {BasedOnField A3}
  96854,                                  ! Barometric Pressure {Pa}
  1.4,                                    ! Wind Speed {m/s}
  280,                                    ! Wind Direction {deg}
  0,                                      ! Sky Clearness
  0,                                      ! Rain Indicator
  0,                                      ! Snow Indicator
  21,                                     ! Day of Month
  12,                                     ! Month
  WinterDesignDay,                        ! Day Type
  0,                                      ! Daylight Saving Time Indicator
  Wetbulb,                                ! Humidity Indicating Type
  ,                                       ! Humidity Indicating Day Schedule Name
  DefaultMultipliers,                     ! Dry-Bulb Temperature Range Modifier Type
  ,                                       ! Dry-Bulb Temperature Range Modifier Schedule Name
  ASHRAEClearSky;                         ! Solar Model Indicator

OS:ComponentData,
  {173bdc47-1665-4c87-b88a-41ba5c2816f1}, ! Handle
  Component Data 1,                       ! Name
  {a6e4eed5-0112-4b7d-bd5d-538429c62bff}, ! UUID
  {956ebd8c-538e-42cc-a8e9-a58b8b375c27}, ! Version UUID
  1366311425,                             ! Creation Timestamp
  1366311425,                             ! Version Timestamp
  {b8cd58c2-3835-46b9-a20b-09d4de544cd8}; ! Name of Object 1

