
OS:Version,
  {1fa3dab2-2824-426a-a3e7-ae6fa06c9753}, ! Handle
  0.9.3;                                  ! Version Identifier

OS:SizingPeriod:DesignDay,
  {01f07171-4254-4f27-831e-34fe7f2b1e3d}, ! Handle
  Ukiah Municipal Ap Ann Clg 1% Condns DP=>MDB, ! Name
  27.4,                                   ! Maximum Dry-Bulb Temperature {C}
  19.5,                                   ! Daily Dry-Bulb Temperature Range {deltaC}
  15.5,                                   ! Humidity Indicating Conditions at Maximum Dry-Bulb {BasedOnField A3}
  99075,                                  ! Barometric Pressure {Pa}
  3.5,                                    ! Wind Speed {m/s}
  240,                                    ! Wind Direction {deg}
  0,                                      ! Sky Clearness
  0,                                      ! Rain Indicator
  0,                                      ! Snow Indicator
  21,                                     ! Day of Month
  7,                                      ! Month
  SummerDesignDay,                        ! Day Type
  0,                                      ! Daylight Saving Time Indicator
  Dewpoint,                               ! Humidity Indicating Type
  ,                                       ! Humidity Indicating Day Schedule Name
  DefaultMultipliers,                     ! Dry-Bulb Temperature Range Modifier Type
  ,                                       ! Dry-Bulb Temperature Range Modifier Schedule Name
  ASHRAETau,                              ! Solar Model Indicator
  ,                                       ! Beam Solar Day Schedule Name
  ,                                       ! Diffuse Solar Day Schedule Name
  0.352,                                  ! ASHRAE Taub {dimensionless}
  2.545;                                  ! ASHRAE Taud {dimensionless}

OS:ComponentData,
  {caff4b97-2e54-4670-9227-0cc6ab7b72a5}, ! Handle
  Component Data 1,                       ! Name
  {c7395797-47cc-4362-a872-01128703f005}, ! UUID
  {dac394f2-58a5-495e-b484-ca7e6967e521}, ! Version UUID
  1366306629,                             ! Creation Timestamp
  1366306629,                             ! Version Timestamp
  {01f07171-4254-4f27-831e-34fe7f2b1e3d}; ! Name of Object 1

