
OS:Version,
  {4ee92b6f-f380-4d65-bedf-91f83ede7181}, ! Handle
  0.9.3;                                  ! Version Identifier

OS:SizingPeriod:DesignDay,
  {30102fcb-20cb-4e7d-9665-97a4713bb7af}, ! Handle
  Riverside Muni Ann Clg 2% Condns WB=>MDB, ! Name
  32.3,                                   ! Maximum Dry-Bulb Temperature {C}
  16.4,                                   ! Daily Dry-Bulb Temperature Range {deltaC}
  21.5,                                   ! Humidity Indicating Conditions at Maximum Dry-Bulb {BasedOnField A3}
  98287,                                  ! Barometric Pressure {Pa}
  4.7,                                    ! Wind Speed {m/s}
  270,                                    ! Wind Direction {deg}
  0,                                      ! Sky Clearness
  0,                                      ! Rain Indicator
  0,                                      ! Snow Indicator
  21,                                     ! Day of Month
  7,                                      ! Month
  SummerDesignDay,                        ! Day Type
  0,                                      ! Daylight Saving Time Indicator
  Wetbulb,                                ! Humidity Indicating Type
  ,                                       ! Humidity Indicating Day Schedule Name
  DefaultMultipliers,                     ! Dry-Bulb Temperature Range Modifier Type
  ,                                       ! Dry-Bulb Temperature Range Modifier Schedule Name
  ASHRAETau,                              ! Solar Model Indicator
  ,                                       ! Beam Solar Day Schedule Name
  ,                                       ! Diffuse Solar Day Schedule Name
  0.461,                                  ! ASHRAE Taub {dimensionless}
  1.976;                                  ! ASHRAE Taud {dimensionless}

OS:ComponentData,
  {7bdf1060-685b-476c-ac0a-2fedbffe076a}, ! Handle
  Component Data 1,                       ! Name
  {dafb55d3-6cc7-4ad8-9cab-71a694047905}, ! UUID
  {9924ba31-572e-4362-9c52-e837655f7230}, ! Version UUID
  1366306558,                             ! Creation Timestamp
  1366306558,                             ! Version Timestamp
  {30102fcb-20cb-4e7d-9665-97a4713bb7af}; ! Name of Object 1

