
OS:Version,
  {f29781c1-83d8-4c38-a721-857ca530b8ad}, ! Handle
  0.9.3;                                  ! Version Identifier

OS:SizingPeriod:DesignDay,
  {b6b5bf06-fc85-47e2-a565-d98d780c291b}, ! Handle
  Northway Airport Ann Clg 1% Condns Enth=>MDB, ! Name
  21.8,                                   ! Maximum Dry-Bulb Temperature {C}
  11.3,                                   ! Daily Dry-Bulb Temperature Range {deltaC}
  42800,                                  ! Humidity Indicating Conditions at Maximum Dry-Bulb {BasedOnField A3}
  95209,                                  ! Barometric Pressure {Pa}
  2.7,                                    ! Wind Speed {m/s}
  290,                                    ! Wind Direction {deg}
  0,                                      ! Sky Clearness
  0,                                      ! Rain Indicator
  0,                                      ! Snow Indicator
  21,                                     ! Day of Month
  7,                                      ! Month
  SummerDesignDay,                        ! Day Type
  0,                                      ! Daylight Saving Time Indicator
  Enthalpy,                               ! Humidity Indicating Type
  ,                                       ! Humidity Indicating Day Schedule Name
  DefaultMultipliers,                     ! Dry-Bulb Temperature Range Modifier Type
  ,                                       ! Dry-Bulb Temperature Range Modifier Schedule Name
  ASHRAETau,                              ! Solar Model Indicator
  ,                                       ! Beam Solar Day Schedule Name
  ,                                       ! Diffuse Solar Day Schedule Name
  0.398,                                  ! ASHRAE Taub {dimensionless}
  2.064;                                  ! ASHRAE Taud {dimensionless}

OS:ComponentData,
  {87691686-a4c4-4fb5-ab83-daf219d28415}, ! Handle
  Component Data 1,                       ! Name
  {e473d1af-077a-4383-8bf1-886154e86f29}, ! UUID
  {d0613abe-3798-4b25-9097-0d604e5eab5e}, ! Version UUID
  1366305472,                             ! Creation Timestamp
  1366305472,                             ! Version Timestamp
  {b6b5bf06-fc85-47e2-a565-d98d780c291b}; ! Name of Object 1

