
OS:Version,
  {caa71e5d-ce08-41d0-99dd-8e1dd82179d2}, ! Handle
  0.9.3;                                  ! Version Identifier

OS:SizingPeriod:DesignDay,
  {2d4483fa-bffc-44b1-9166-f42c11da4f05}, ! Handle
  Palacios Municipal Ap Ann Clg 2% Condns DB=>MWB, ! Name
  32.4,                                   ! Maximum Dry-Bulb Temperature {C}
  6.4,                                    ! Daily Dry-Bulb Temperature Range {deltaC}
  26,                                     ! Humidity Indicating Conditions at Maximum Dry-Bulb {BasedOnField A3}
  101265,                                 ! Barometric Pressure {Pa}
  5.4,                                    ! Wind Speed {m/s}
  180,                                    ! Wind Direction {deg}
  0,                                      ! Sky Clearness
  0,                                      ! Rain Indicator
  0,                                      ! Snow Indicator
  21,                                     ! Day of Month
  7,                                      ! Month
  SummerDesignDay,                        ! Day Type
  0,                                      ! Daylight Saving Time Indicator
  Wetbulb,                                ! Humidity Indicating Type
  ,                                       ! Humidity Indicating Day Schedule Name
  DefaultMultipliers,                     ! Dry-Bulb Temperature Range Modifier Type
  ,                                       ! Dry-Bulb Temperature Range Modifier Schedule Name
  ASHRAETau,                              ! Solar Model Indicator
  ,                                       ! Beam Solar Day Schedule Name
  ,                                       ! Diffuse Solar Day Schedule Name
  0.484,                                  ! ASHRAE Taub {dimensionless}
  2.032;                                  ! ASHRAE Taud {dimensionless}

OS:ComponentData,
  {df8c9992-20b4-4013-b6e6-e5381acfceed}, ! Handle
  Component Data 1,                       ! Name
  {f1c79ccb-99c7-4cdb-8044-69fac6f0d045}, ! UUID
  {dc226ba0-9c08-4b1f-b749-4fc62bee5e9c}, ! Version UUID
  1366310844,                             ! Creation Timestamp
  1366310844,                             ! Version Timestamp
  {2d4483fa-bffc-44b1-9166-f42c11da4f05}; ! Name of Object 1

