
OS:Version,
  {30e94aaf-93e4-4609-90b5-355c13cf56ea}, ! Handle
  0.9.3;                                  ! Version Identifier

OS:SizingPeriod:DesignDay,
  {1e51f434-7b57-4a85-b29e-f600d75a5470}, ! Handle
  Nome Municipal Arpt Ann Clg .4% Condns DP=>MDB, ! Name
  15.9,                                   ! Maximum Dry-Bulb Temperature {C}
  5.9,                                    ! Daily Dry-Bulb Temperature Range {deltaC}
  13.2,                                   ! Humidity Indicating Conditions at Maximum Dry-Bulb {BasedOnField A3}
  101277,                                 ! Barometric Pressure {Pa}
  4.8,                                    ! Wind Speed {m/s}
  260,                                    ! Wind Direction {deg}
  0,                                      ! Sky Clearness
  0,                                      ! Rain Indicator
  0,                                      ! Snow Indicator
  21,                                     ! Day of Month
  7,                                      ! Month
  SummerDesignDay,                        ! Day Type
  0,                                      ! Daylight Saving Time Indicator
  Dewpoint,                               ! Humidity Indicating Type
  ,                                       ! Humidity Indicating Day Schedule Name
  DefaultMultipliers,                     ! Dry-Bulb Temperature Range Modifier Type
  ,                                       ! Dry-Bulb Temperature Range Modifier Schedule Name
  ASHRAETau,                              ! Solar Model Indicator
  ,                                       ! Beam Solar Day Schedule Name
  ,                                       ! Diffuse Solar Day Schedule Name
  0.408,                                  ! ASHRAE Taub {dimensionless}
  2.08;                                   ! ASHRAE Taud {dimensionless}

OS:ComponentData,
  {37f70fde-36c8-4e24-9c5d-016260e01b35}, ! Handle
  Component Data 1,                       ! Name
  {f5ac920f-689c-4c12-a04d-037409c06c65}, ! UUID
  {08ec5ff0-6db2-424f-aa92-01f239000b1c}, ! Version UUID
  1366305464,                             ! Creation Timestamp
  1366305464,                             ! Version Timestamp
  {1e51f434-7b57-4a85-b29e-f600d75a5470}; ! Name of Object 1

