
OS:Version,
  {f4e374b4-7b30-4e28-833c-b356faa45aa7}, ! Handle
  0.9.3;                                  ! Version Identifier

OS:SizingPeriod:DesignDay,
  {3b04d640-dc95-4c45-b5dd-f0799e730dd7}, ! Handle
  Sault Ste Marie Ann Hum_n 99.6% Condns DP=>MCDB, ! Name
  -23.3,                                  ! Maximum Dry-Bulb Temperature {C}
  0,                                      ! Daily Dry-Bulb Temperature Range {deltaC}
  -29.1,                                  ! Humidity Indicating Conditions at Maximum Dry-Bulb {BasedOnField A3}
  98698,                                  ! Barometric Pressure {Pa}
  2.4,                                    ! Wind Speed {m/s}
  90,                                     ! Wind Direction {deg}
  0,                                      ! Sky Clearness
  0,                                      ! Rain Indicator
  0,                                      ! Snow Indicator
  21,                                     ! Day of Month
  1,                                      ! Month
  WinterDesignDay,                        ! Day Type
  0,                                      ! Daylight Saving Time Indicator
  Dewpoint,                               ! Humidity Indicating Type
  ,                                       ! Humidity Indicating Day Schedule Name
  DefaultMultipliers,                     ! Dry-Bulb Temperature Range Modifier Type
  ,                                       ! Dry-Bulb Temperature Range Modifier Schedule Name
  ASHRAEClearSky;                         ! Solar Model Indicator

OS:ComponentData,
  {c5d5c2e1-febb-4644-80c7-7445308007ac}, ! Handle
  Component Data 1,                       ! Name
  {1d1218a4-028a-4a62-84c8-c66207f2cb8f}, ! UUID
  {a8156676-a4be-4d33-907f-dd0c395cab6b}, ! Version UUID
  1366308100,                             ! Creation Timestamp
  1366308100,                             ! Version Timestamp
  {3b04d640-dc95-4c45-b5dd-f0799e730dd7}; ! Name of Object 1

