
OS:Version,
  {192dde71-31e4-4506-af37-25015dd35071}, ! Handle
  0.9.3;                                  ! Version Identifier

OS:SizingPeriod:DesignDay,
  {488e4a03-bfe5-4a38-b381-fab88dc6cb61}, ! Handle
  Peoria Greater Peoria Ap Ann Clg .4% Condns DB=>MWB, ! Name
  33.7,                                   ! Maximum Dry-Bulb Temperature {C}
  10.6,                                   ! Daily Dry-Bulb Temperature Range {deltaC}
  24.7,                                   ! Humidity Indicating Conditions at Maximum Dry-Bulb {BasedOnField A3}
  98957,                                  ! Barometric Pressure {Pa}
  4.8,                                    ! Wind Speed {m/s}
  220,                                    ! Wind Direction {deg}
  0,                                      ! Sky Clearness
  0,                                      ! Rain Indicator
  0,                                      ! Snow Indicator
  21,                                     ! Day of Month
  7,                                      ! Month
  SummerDesignDay,                        ! Day Type
  0,                                      ! Daylight Saving Time Indicator
  Wetbulb,                                ! Humidity Indicating Type
  ,                                       ! Humidity Indicating Day Schedule Name
  DefaultMultipliers,                     ! Dry-Bulb Temperature Range Modifier Type
  ,                                       ! Dry-Bulb Temperature Range Modifier Schedule Name
  ASHRAETau,                              ! Solar Model Indicator
  ,                                       ! Beam Solar Day Schedule Name
  ,                                       ! Diffuse Solar Day Schedule Name
  0.455,                                  ! ASHRAE Taub {dimensionless}
  2.051;                                  ! ASHRAE Taud {dimensionless}

OS:ComponentData,
  {8521d429-4aa4-4845-84e2-1b134f635480}, ! Handle
  Component Data 1,                       ! Name
  {e80f2268-e588-49d6-8c34-bdf19610bf03}, ! UUID
  {3fb1266e-f471-42dd-a1ae-d237dd3e93e9}, ! Version UUID
  1366307380,                             ! Creation Timestamp
  1366307380,                             ! Version Timestamp
  {488e4a03-bfe5-4a38-b381-fab88dc6cb61}; ! Name of Object 1

