
OS:Version,
  {8765136b-b3d7-433e-9a3e-3ad6925691b7}, ! Handle
  0.9.3;                                  ! Version Identifier

OS:SizingPeriod:DesignDay,
  {edb6a102-2f9d-4963-947d-9aa28f3e1746}, ! Handle
  Valdez Pioneer Fiel Ann Hum_n 99.6% Condns DP=>MCDB, ! Name
  -13.8,                                  ! Maximum Dry-Bulb Temperature {C}
  0,                                      ! Daily Dry-Bulb Temperature Range {deltaC}
  -27.1,                                  ! Humidity Indicating Conditions at Maximum Dry-Bulb {BasedOnField A3}
  100869,                                 ! Barometric Pressure {Pa}
  2.3,                                    ! Wind Speed {m/s}
  90,                                     ! Wind Direction {deg}
  0,                                      ! Sky Clearness
  0,                                      ! Rain Indicator
  0,                                      ! Snow Indicator
  21,                                     ! Day of Month
  1,                                      ! Month
  WinterDesignDay,                        ! Day Type
  0,                                      ! Daylight Saving Time Indicator
  Dewpoint,                               ! Humidity Indicating Type
  ,                                       ! Humidity Indicating Day Schedule Name
  DefaultMultipliers,                     ! Dry-Bulb Temperature Range Modifier Type
  ,                                       ! Dry-Bulb Temperature Range Modifier Schedule Name
  ASHRAEClearSky;                         ! Solar Model Indicator

OS:ComponentData,
  {bfaa33a2-085d-43f1-9f55-a0388eac2bce}, ! Handle
  Component Data 1,                       ! Name
  {f9c2074a-c500-46b6-8a30-1ba7c47478fe}, ! UUID
  {72c391c6-bf10-429d-9ffa-6a440fc5d271}, ! Version UUID
  1366305605,                             ! Creation Timestamp
  1366305605,                             ! Version Timestamp
  {edb6a102-2f9d-4963-947d-9aa28f3e1746}; ! Name of Object 1

