
OS:Version,
  {189d18a1-9546-4fe8-a235-b1b310c97e58}, ! Handle
  0.9.3;                                  ! Version Identifier

OS:SizingPeriod:DesignDay,
  {716cdbe9-5542-4858-90ca-76261d142532}, ! Handle
  San Diego Montgomer Ann Clg 1% Condns DB=>MWB, ! Name
  29,                                     ! Maximum Dry-Bulb Temperature {C}
  7.8,                                    ! Daily Dry-Bulb Temperature Range {deltaC}
  18.7,                                   ! Humidity Indicating Conditions at Maximum Dry-Bulb {BasedOnField A3}
  99785,                                  ! Barometric Pressure {Pa}
  4,                                      ! Wind Speed {m/s}
  300,                                    ! Wind Direction {deg}
  0,                                      ! Sky Clearness
  0,                                      ! Rain Indicator
  0,                                      ! Snow Indicator
  21,                                     ! Day of Month
  8,                                      ! Month
  SummerDesignDay,                        ! Day Type
  0,                                      ! Daylight Saving Time Indicator
  Wetbulb,                                ! Humidity Indicating Type
  ,                                       ! Humidity Indicating Day Schedule Name
  DefaultMultipliers,                     ! Dry-Bulb Temperature Range Modifier Type
  ,                                       ! Dry-Bulb Temperature Range Modifier Schedule Name
  ASHRAETau,                              ! Solar Model Indicator
  ,                                       ! Beam Solar Day Schedule Name
  ,                                       ! Diffuse Solar Day Schedule Name
  0.417,                                  ! ASHRAE Taub {dimensionless}
  2.236;                                  ! ASHRAE Taud {dimensionless}

OS:ComponentData,
  {e21895ad-d316-4d53-8f73-088939ae3e30}, ! Handle
  Component Data 1,                       ! Name
  {d667df58-c9c0-4a50-8ca5-fc0f76a8d54e}, ! UUID
  {df98d02e-3a93-40d3-bba6-9935f87937ce}, ! Version UUID
  1366306580,                             ! Creation Timestamp
  1366306580,                             ! Version Timestamp
  {716cdbe9-5542-4858-90ca-76261d142532}; ! Name of Object 1

