
OS:Version,
  {6ce5fc3a-8983-47b6-ace0-a6762de74640}, ! Handle
  0.9.3;                                  ! Version Identifier

OS:SizingPeriod:DesignDay,
  {96966163-ac5e-499b-a217-e06e12bca728}, ! Handle
  St Louis Spirit Of St Louis A Ann Clg .4% Condns DP=>MDB, ! Name
  30.1,                                   ! Maximum Dry-Bulb Temperature {C}
  11.1,                                   ! Daily Dry-Bulb Temperature Range {deltaC}
  24.9,                                   ! Humidity Indicating Conditions at Maximum Dry-Bulb {BasedOnField A3}
  99643,                                  ! Barometric Pressure {Pa}
  4.1,                                    ! Wind Speed {m/s}
  220,                                    ! Wind Direction {deg}
  0,                                      ! Sky Clearness
  0,                                      ! Rain Indicator
  0,                                      ! Snow Indicator
  21,                                     ! Day of Month
  7,                                      ! Month
  SummerDesignDay,                        ! Day Type
  0,                                      ! Daylight Saving Time Indicator
  Dewpoint,                               ! Humidity Indicating Type
  ,                                       ! Humidity Indicating Day Schedule Name
  DefaultMultipliers,                     ! Dry-Bulb Temperature Range Modifier Type
  ,                                       ! Dry-Bulb Temperature Range Modifier Schedule Name
  ASHRAETau,                              ! Solar Model Indicator
  ,                                       ! Beam Solar Day Schedule Name
  ,                                       ! Diffuse Solar Day Schedule Name
  0.475,                                  ! ASHRAE Taub {dimensionless}
  1.999;                                  ! ASHRAE Taud {dimensionless}

OS:ComponentData,
  {819497cb-9355-40a9-a57b-82912cbc4555}, ! Handle
  Component Data 1,                       ! Name
  {c39ab24a-f336-4fda-ad16-107509c892dd}, ! UUID
  {22f48ad7-61f9-4f92-a1a0-e1704d0e3d02}, ! Version UUID
  1366308591,                             ! Creation Timestamp
  1366308591,                             ! Version Timestamp
  {96966163-ac5e-499b-a217-e06e12bca728}; ! Name of Object 1

