
OS:Version,
  {11670a15-55ab-403b-adc9-b178304f11d4}, ! Handle
  0.9.3;                                  ! Version Identifier

OS:SizingPeriod:DesignDay,
  {0586bbcb-89f1-4a9f-bffc-f7ccb27b3de3}, ! Handle
  Mccook Municipal Ann Hum_n 99.6% Condns DP=>MCDB, ! Name
  -16.4,                                  ! Maximum Dry-Bulb Temperature {C}
  0,                                      ! Daily Dry-Bulb Temperature Range {deltaC}
  -22,                                    ! Humidity Indicating Conditions at Maximum Dry-Bulb {BasedOnField A3}
  92232,                                  ! Barometric Pressure {Pa}
  3.9,                                    ! Wind Speed {m/s}
  320,                                    ! Wind Direction {deg}
  0,                                      ! Sky Clearness
  0,                                      ! Rain Indicator
  0,                                      ! Snow Indicator
  21,                                     ! Day of Month
  1,                                      ! Month
  WinterDesignDay,                        ! Day Type
  0,                                      ! Daylight Saving Time Indicator
  Dewpoint,                               ! Humidity Indicating Type
  ,                                       ! Humidity Indicating Day Schedule Name
  DefaultMultipliers,                     ! Dry-Bulb Temperature Range Modifier Type
  ,                                       ! Dry-Bulb Temperature Range Modifier Schedule Name
  ASHRAEClearSky;                         ! Solar Model Indicator

OS:ComponentData,
  {d4a901ef-fc89-4894-a328-d1dd97a94ea2}, ! Handle
  Component Data 1,                       ! Name
  {5b574b6d-c523-48ac-bbb1-9e2fb7ae653f}, ! UUID
  {75431cfd-0961-405f-84b6-8d194f3314d8}, ! Version UUID
  1366309143,                             ! Creation Timestamp
  1366309143,                             ! Version Timestamp
  {0586bbcb-89f1-4a9f-bffc-f7ccb27b3de3}; ! Name of Object 1

