
OS:Version,
  {b7fe6967-1912-433b-8e3b-92042f6b4b56}, ! Handle
  0.9.3;                                  ! Version Identifier

OS:SizingPeriod:DesignDay,
  {b7e65601-5202-4ac9-bc39-c861fc6ec835}, ! Handle
  Sandberg Ann Htg 99.6% Condns DB,       ! Name
  -3.1,                                   ! Maximum Dry-Bulb Temperature {C}
  0,                                      ! Daily Dry-Bulb Temperature Range {deltaC}
  -3.1,                                   ! Humidity Indicating Conditions at Maximum Dry-Bulb {BasedOnField A3}
  85840,                                  ! Barometric Pressure {Pa}
  6.7,                                    ! Wind Speed {m/s}
  340,                                    ! Wind Direction {deg}
  0,                                      ! Sky Clearness
  0,                                      ! Rain Indicator
  0,                                      ! Snow Indicator
  21,                                     ! Day of Month
  12,                                     ! Month
  WinterDesignDay,                        ! Day Type
  0,                                      ! Daylight Saving Time Indicator
  Wetbulb,                                ! Humidity Indicating Type
  ,                                       ! Humidity Indicating Day Schedule Name
  DefaultMultipliers,                     ! Dry-Bulb Temperature Range Modifier Type
  ,                                       ! Dry-Bulb Temperature Range Modifier Schedule Name
  ASHRAEClearSky;                         ! Solar Model Indicator

OS:ComponentData,
  {87809861-fc13-40d4-8096-5787434193c5}, ! Handle
  Component Data 1,                       ! Name
  {b284da0c-5803-49c2-a07a-e0e24364ccbf}, ! UUID
  {76980f4e-7c2c-46c9-b523-cbc229a118a5}, ! Version UUID
  1366306603,                             ! Creation Timestamp
  1366306603,                             ! Version Timestamp
  {b7e65601-5202-4ac9-bc39-c861fc6ec835}; ! Name of Object 1

