
OS:Version,
  {854097c1-0e7b-40e1-bfcc-a57cedefaaf6}, ! Handle
  0.9.3;                                  ! Version Identifier

OS:SizingPeriod:DesignDay,
  {80701f81-62d2-4ef9-a796-2095a5dcc23c}, ! Handle
  TALKEETNA Ann Htg Wind 99.6% Condns WS=>MCDB, ! Name
  -8.9,                                   ! Maximum Dry-Bulb Temperature {C}
  0,                                      ! Daily Dry-Bulb Temperature Range {deltaC}
  -8.9,                                   ! Humidity Indicating Conditions at Maximum Dry-Bulb {BasedOnField A3}
  100070,                                 ! Barometric Pressure {Pa}
  8.8,                                    ! Wind Speed {m/s}
  30,                                     ! Wind Direction {deg}
  0,                                      ! Sky Clearness
  0,                                      ! Rain Indicator
  0,                                      ! Snow Indicator
  21,                                     ! Day of Month
  1,                                      ! Month
  WinterDesignDay,                        ! Day Type
  0,                                      ! Daylight Saving Time Indicator
  Wetbulb,                                ! Humidity Indicating Type
  ,                                       ! Humidity Indicating Day Schedule Name
  DefaultMultipliers,                     ! Dry-Bulb Temperature Range Modifier Type
  ,                                       ! Dry-Bulb Temperature Range Modifier Schedule Name
  ASHRAEClearSky;                         ! Solar Model Indicator

OS:ComponentData,
  {cc28b2f6-f079-458e-87e0-dbbe6850875b}, ! Handle
  Component Data 1,                       ! Name
  {52882ae4-4053-424c-a8b6-32d04518209c}, ! UUID
  {9ad6d619-6bd3-4091-9630-7fbe784d1219}, ! Version UUID
  1366305581,                             ! Creation Timestamp
  1366305581,                             ! Version Timestamp
  {80701f81-62d2-4ef9-a796-2095a5dcc23c}; ! Name of Object 1

