
OS:Version,
  {fc50fcba-fe2b-43be-b1f5-463806da776b}, ! Handle
  0.9.3;                                  ! Version Identifier

OS:SizingPeriod:DesignDay,
  {3bb3cf7f-9997-4c34-b15f-fd3797854f2b}, ! Handle
  Washington Dc Dulles IntL Ar Ann Clg 2% Condns WB=>MDB, ! Name
  29.1,                                   ! Maximum Dry-Bulb Temperature {C}
  11.4,                                   ! Daily Dry-Bulb Temperature Range {deltaC}
  24.1,                                   ! Humidity Indicating Conditions at Maximum Dry-Bulb {BasedOnField A3}
  100344,                                 ! Barometric Pressure {Pa}
  4,                                      ! Wind Speed {m/s}
  290,                                    ! Wind Direction {deg}
  0,                                      ! Sky Clearness
  0,                                      ! Rain Indicator
  0,                                      ! Snow Indicator
  21,                                     ! Day of Month
  7,                                      ! Month
  SummerDesignDay,                        ! Day Type
  0,                                      ! Daylight Saving Time Indicator
  Wetbulb,                                ! Humidity Indicating Type
  ,                                       ! Humidity Indicating Day Schedule Name
  DefaultMultipliers,                     ! Dry-Bulb Temperature Range Modifier Type
  ,                                       ! Dry-Bulb Temperature Range Modifier Schedule Name
  ASHRAETau,                              ! Solar Model Indicator
  ,                                       ! Beam Solar Day Schedule Name
  ,                                       ! Diffuse Solar Day Schedule Name
  0.544,                                  ! ASHRAE Taub {dimensionless}
  1.787;                                  ! ASHRAE Taud {dimensionless}

OS:ComponentData,
  {4db414a6-66e2-443e-a6c8-44e6d0e859cb}, ! Handle
  Component Data 1,                       ! Name
  {efd7deb0-ed0c-4e3f-adbd-d33118e1b11d}, ! UUID
  {9393a5c1-996c-47b4-b91b-fd5927e4bf86}, ! Version UUID
  1366311218,                             ! Creation Timestamp
  1366311218,                             ! Version Timestamp
  {3bb3cf7f-9997-4c34-b15f-fd3797854f2b}; ! Name of Object 1

