
OS:Version,
  {1fc7ec04-3170-4c7c-8e58-eee455ca5f53}, ! Handle
  0.9.3;                                  ! Version Identifier

OS:SizingPeriod:DesignDay,
  {aefea544-89b2-4ae4-adff-c801ab7fef9d}, ! Handle
  Minneapolis-St Paul Ann Hum_n 99% Condns DP=>MCDB, ! Name
  -21.5,                                  ! Maximum Dry-Bulb Temperature {C}
  0,                                      ! Daily Dry-Bulb Temperature Range {deltaC}
  -27.2,                                  ! Humidity Indicating Conditions at Maximum Dry-Bulb {BasedOnField A3}
  98299,                                  ! Barometric Pressure {Pa}
  3.8,                                    ! Wind Speed {m/s}
  300,                                    ! Wind Direction {deg}
  0,                                      ! Sky Clearness
  0,                                      ! Rain Indicator
  0,                                      ! Snow Indicator
  21,                                     ! Day of Month
  1,                                      ! Month
  WinterDesignDay,                        ! Day Type
  0,                                      ! Daylight Saving Time Indicator
  Dewpoint,                               ! Humidity Indicating Type
  ,                                       ! Humidity Indicating Day Schedule Name
  DefaultMultipliers,                     ! Dry-Bulb Temperature Range Modifier Type
  ,                                       ! Dry-Bulb Temperature Range Modifier Schedule Name
  ASHRAEClearSky;                         ! Solar Model Indicator

OS:ComponentData,
  {13267d54-c452-4f6b-b5da-30162c5c82d1}, ! Handle
  Component Data 1,                       ! Name
  {2dd693e5-111b-42b2-8ade-206b5fbd949b}, ! UUID
  {60cc086c-3002-4828-88c3-ab52c4b5ebc2}, ! Version UUID
  1366308317,                             ! Creation Timestamp
  1366308317,                             ! Version Timestamp
  {aefea544-89b2-4ae4-adff-c801ab7fef9d}; ! Name of Object 1

