
OS:Version,
  {16008288-e8cb-4464-9c5e-07c8358993b7}, ! Handle
  0.9.3;                                  ! Version Identifier

OS:SizingPeriod:DesignDay,
  {bec9aa6e-b9a1-4218-b5bd-cfcee8c6a63e}, ! Handle
  Valdez Wso Ann Htg 99% Condns DB,       ! Name
  -13.7,                                  ! Maximum Dry-Bulb Temperature {C}
  0,                                      ! Daily Dry-Bulb Temperature Range {deltaC}
  -13.7,                                  ! Humidity Indicating Conditions at Maximum Dry-Bulb {BasedOnField A3}
  101241,                                 ! Barometric Pressure {Pa}
  6.3,                                    ! Wind Speed {m/s}
  60,                                     ! Wind Direction {deg}
  0,                                      ! Sky Clearness
  0,                                      ! Rain Indicator
  0,                                      ! Snow Indicator
  21,                                     ! Day of Month
  1,                                      ! Month
  WinterDesignDay,                        ! Day Type
  0,                                      ! Daylight Saving Time Indicator
  Wetbulb,                                ! Humidity Indicating Type
  ,                                       ! Humidity Indicating Day Schedule Name
  DefaultMultipliers,                     ! Dry-Bulb Temperature Range Modifier Type
  ,                                       ! Dry-Bulb Temperature Range Modifier Schedule Name
  ASHRAEClearSky;                         ! Solar Model Indicator

OS:ComponentData,
  {2a19f74b-3aa6-4f12-8ef6-3436ea3cea8c}, ! Handle
  Component Data 1,                       ! Name
  {70982789-f19f-428d-8a60-6a4e887dd157}, ! UUID
  {f6ea5be9-7d20-417a-bdce-2aa1757d48eb}, ! Version UUID
  1366305607,                             ! Creation Timestamp
  1366305607,                             ! Version Timestamp
  {bec9aa6e-b9a1-4218-b5bd-cfcee8c6a63e}; ! Name of Object 1

