
OS:Version,
  {7171cf59-1096-4210-8633-7a22483765d3}, ! Handle
  0.9.3;                                  ! Version Identifier

OS:SizingPeriod:DesignDay,
  {65735f35-aa28-47db-bd2c-f42eb747fce4}, ! Handle
  Springfield Ann Clg 1% Condns DP=>MDB,  ! Name
  28.9,                                   ! Maximum Dry-Bulb Temperature {C}
  10.7,                                   ! Daily Dry-Bulb Temperature Range {deltaC}
  23.9,                                   ! Humidity Indicating Conditions at Maximum Dry-Bulb {BasedOnField A3}
  99099,                                  ! Barometric Pressure {Pa}
  4.6,                                    ! Wind Speed {m/s}
  230,                                    ! Wind Direction {deg}
  0,                                      ! Sky Clearness
  0,                                      ! Rain Indicator
  0,                                      ! Snow Indicator
  21,                                     ! Day of Month
  7,                                      ! Month
  SummerDesignDay,                        ! Day Type
  0,                                      ! Daylight Saving Time Indicator
  Dewpoint,                               ! Humidity Indicating Type
  ,                                       ! Humidity Indicating Day Schedule Name
  DefaultMultipliers,                     ! Dry-Bulb Temperature Range Modifier Type
  ,                                       ! Dry-Bulb Temperature Range Modifier Schedule Name
  ASHRAETau,                              ! Solar Model Indicator
  ,                                       ! Beam Solar Day Schedule Name
  ,                                       ! Diffuse Solar Day Schedule Name
  0.463,                                  ! ASHRAE Taub {dimensionless}
  2.022;                                  ! ASHRAE Taud {dimensionless}

OS:ComponentData,
  {2f0e0e78-187e-4b31-a5ae-cd2f6f5f84dd}, ! Handle
  Component Data 1,                       ! Name
  {e58c8ae3-1f77-4beb-a5a2-3770a4ac07d3}, ! UUID
  {6b5684ca-0f3f-419c-ba4f-49ecaec52215}, ! Version UUID
  1366307401,                             ! Creation Timestamp
  1366307401,                             ! Version Timestamp
  {65735f35-aa28-47db-bd2c-f42eb747fce4}; ! Name of Object 1

