
OS:Version,
  {78e0b76b-72ec-4e0c-ae92-6c94fbfbe8cd}, ! Handle
  0.9.3;                                  ! Version Identifier

OS:SizingPeriod:DesignDay,
  {73fcaf36-2119-47a6-9b87-2f11b45b18b1}, ! Handle
  Mcalester Municipal Ap Ann Clg 1% Condns DP=>MDB, ! Name
  28.8,                                   ! Maximum Dry-Bulb Temperature {C}
  11.2,                                   ! Daily Dry-Bulb Temperature Range {deltaC}
  23.9,                                   ! Humidity Indicating Conditions at Maximum Dry-Bulb {BasedOnField A3}
  98569,                                  ! Barometric Pressure {Pa}
  3.9,                                    ! Wind Speed {m/s}
  200,                                    ! Wind Direction {deg}
  0,                                      ! Sky Clearness
  0,                                      ! Rain Indicator
  0,                                      ! Snow Indicator
  21,                                     ! Day of Month
  7,                                      ! Month
  SummerDesignDay,                        ! Day Type
  0,                                      ! Daylight Saving Time Indicator
  Dewpoint,                               ! Humidity Indicating Type
  ,                                       ! Humidity Indicating Day Schedule Name
  DefaultMultipliers,                     ! Dry-Bulb Temperature Range Modifier Type
  ,                                       ! Dry-Bulb Temperature Range Modifier Schedule Name
  ASHRAETau,                              ! Solar Model Indicator
  ,                                       ! Beam Solar Day Schedule Name
  ,                                       ! Diffuse Solar Day Schedule Name
  0.459,                                  ! ASHRAE Taub {dimensionless}
  2.091;                                  ! ASHRAE Taud {dimensionless}

OS:ComponentData,
  {1abd80c8-8fd3-4062-85c5-a19480c273f1}, ! Handle
  Component Data 1,                       ! Name
  {c0ef6392-6fdc-41fc-bb11-a72ac70d0608}, ! UUID
  {db48090b-36a1-4447-9ee3-447136773d6e}, ! Version UUID
  1366309908,                             ! Creation Timestamp
  1366309908,                             ! Version Timestamp
  {73fcaf36-2119-47a6-9b87-2f11b45b18b1}; ! Name of Object 1

