
OS:Version,
  {ea9d2769-36e1-44c5-b0ab-d0b71bfe3e44}, ! Handle
  0.9.3;                                  ! Version Identifier

OS:SizingPeriod:DesignDay,
  {12c7cf95-da53-4070-990d-cdd4e3495d18}, ! Handle
  Robert Gray Aaf Ann Hum_n 99% Condns DP=>MCDB, ! Name
  3.1,                                    ! Maximum Dry-Bulb Temperature {C}
  0,                                      ! Daily Dry-Bulb Temperature Range {deltaC}
  -9.5,                                   ! Humidity Indicating Conditions at Maximum Dry-Bulb {BasedOnField A3}
  97633,                                  ! Barometric Pressure {Pa}
  4,                                      ! Wind Speed {m/s}
  350,                                    ! Wind Direction {deg}
  0,                                      ! Sky Clearness
  0,                                      ! Rain Indicator
  0,                                      ! Snow Indicator
  21,                                     ! Day of Month
  1,                                      ! Month
  WinterDesignDay,                        ! Day Type
  0,                                      ! Daylight Saving Time Indicator
  Dewpoint,                               ! Humidity Indicating Type
  ,                                       ! Humidity Indicating Day Schedule Name
  DefaultMultipliers,                     ! Dry-Bulb Temperature Range Modifier Type
  ,                                       ! Dry-Bulb Temperature Range Modifier Schedule Name
  ASHRAEClearSky;                         ! Solar Model Indicator

OS:ComponentData,
  {dc4413cf-5e17-4cf6-a9e3-32415dcfb2e9}, ! Handle
  Component Data 1,                       ! Name
  {9a76447a-5d97-4fa6-b034-af700582b5a5}, ! UUID
  {bd77b209-d282-4a8e-87f4-bd8bc8b2f143}, ! Version UUID
  1366310763,                             ! Creation Timestamp
  1366310763,                             ! Version Timestamp
  {12c7cf95-da53-4070-990d-cdd4e3495d18}; ! Name of Object 1

