
OS:Version,
  {48226765-d018-4e48-8f67-05db4b0328b9}, ! Handle
  0.9.3;                                  ! Version Identifier

OS:SizingPeriod:DesignDay,
  {f5614c18-f632-4af4-ac16-bbe1a90bcd12}, ! Handle
  SAVANNAH Ann Clg 1% Condns DB=>MWB,     ! Name
  34.1,                                   ! Maximum Dry-Bulb Temperature {C}
  10,                                     ! Daily Dry-Bulb Temperature Range {deltaC}
  24.9,                                   ! Humidity Indicating Conditions at Maximum Dry-Bulb {BasedOnField A3}
  101133,                                 ! Barometric Pressure {Pa}
  3.7,                                    ! Wind Speed {m/s}
  290,                                    ! Wind Direction {deg}
  0,                                      ! Sky Clearness
  0,                                      ! Rain Indicator
  0,                                      ! Snow Indicator
  21,                                     ! Day of Month
  7,                                      ! Month
  SummerDesignDay,                        ! Day Type
  0,                                      ! Daylight Saving Time Indicator
  Wetbulb,                                ! Humidity Indicating Type
  ,                                       ! Humidity Indicating Day Schedule Name
  DefaultMultipliers,                     ! Dry-Bulb Temperature Range Modifier Type
  ,                                       ! Dry-Bulb Temperature Range Modifier Schedule Name
  ASHRAETau,                              ! Solar Model Indicator
  ,                                       ! Beam Solar Day Schedule Name
  ,                                       ! Diffuse Solar Day Schedule Name
  0.558,                                  ! ASHRAE Taub {dimensionless}
  1.811;                                  ! ASHRAE Taud {dimensionless}

OS:ComponentData,
  {4ae1f7cc-e7e7-43d8-9098-1b8bb6c98d75}, ! Handle
  Component Data 1,                       ! Name
  {697c06bb-f327-4aa3-bb1c-dbff52d343f5}, ! UUID
  {320c1b8f-41df-46b3-a5ad-f66ffdc9559a}, ! Version UUID
  1366307049,                             ! Creation Timestamp
  1366307049,                             ! Version Timestamp
  {f5614c18-f632-4af4-ac16-bbe1a90bcd12}; ! Name of Object 1

