
OS:Version,
  {3c39c5e4-0be5-47a4-b1e2-d9e9cb4e4783}, ! Handle
  0.9.3;                                  ! Version Identifier

OS:SizingPeriod:DesignDay,
  {3dbabb16-a751-4a0f-b524-3f36de4bbec8}, ! Handle
  Nasa Shuttle Fclty Ann Clg 2% Condns Enth=>MDB, ! Name
  30.1,                                   ! Maximum Dry-Bulb Temperature {C}
  8.7,                                    ! Daily Dry-Bulb Temperature Range {deltaC}
  80500,                                  ! Humidity Indicating Conditions at Maximum Dry-Bulb {BasedOnField A3}
  101289,                                 ! Barometric Pressure {Pa}
  3.5,                                    ! Wind Speed {m/s}
  240,                                    ! Wind Direction {deg}
  0,                                      ! Sky Clearness
  0,                                      ! Rain Indicator
  0,                                      ! Snow Indicator
  21,                                     ! Day of Month
  7,                                      ! Month
  SummerDesignDay,                        ! Day Type
  0,                                      ! Daylight Saving Time Indicator
  Enthalpy,                               ! Humidity Indicating Type
  ,                                       ! Humidity Indicating Day Schedule Name
  DefaultMultipliers,                     ! Dry-Bulb Temperature Range Modifier Type
  ,                                       ! Dry-Bulb Temperature Range Modifier Schedule Name
  ASHRAETau,                              ! Solar Model Indicator
  ,                                       ! Beam Solar Day Schedule Name
  ,                                       ! Diffuse Solar Day Schedule Name
  0.504,                                  ! ASHRAE Taub {dimensionless}
  1.981;                                  ! ASHRAE Taud {dimensionless}

OS:ComponentData,
  {f9e68a55-fc75-4a55-a7b0-86157bfa10fe}, ! Handle
  Component Data 1,                       ! Name
  {252cec6b-0a48-411e-95f3-513f290a3b65}, ! UUID
  {1607202d-6213-46d7-9f9c-b67d51389c6b}, ! Version UUID
  1366306879,                             ! Creation Timestamp
  1366306879,                             ! Version Timestamp
  {3dbabb16-a751-4a0f-b524-3f36de4bbec8}; ! Name of Object 1

