
OS:Version,
  {abb52e14-fbb7-4cfe-bec2-1f9fac33cdf7}, ! Handle
  0.9.3;                                  ! Version Identifier

OS:SizingPeriod:DesignDay,
  {0d5e14ad-fc80-4ffa-b3d6-cd94a320462d}, ! Handle
  Oakland Co Intl Ann Clg .4% Condns WB=>MDB, ! Name
  29.6,                                   ! Maximum Dry-Bulb Temperature {C}
  10.1,                                   ! Daily Dry-Bulb Temperature Range {deltaC}
  24.2,                                   ! Humidity Indicating Conditions at Maximum Dry-Bulb {BasedOnField A3}
  97703,                                  ! Barometric Pressure {Pa}
  5.2,                                    ! Wind Speed {m/s}
  240,                                    ! Wind Direction {deg}
  0,                                      ! Sky Clearness
  0,                                      ! Rain Indicator
  0,                                      ! Snow Indicator
  21,                                     ! Day of Month
  7,                                      ! Month
  SummerDesignDay,                        ! Day Type
  0,                                      ! Daylight Saving Time Indicator
  Wetbulb,                                ! Humidity Indicating Type
  ,                                       ! Humidity Indicating Day Schedule Name
  DefaultMultipliers,                     ! Dry-Bulb Temperature Range Modifier Type
  ,                                       ! Dry-Bulb Temperature Range Modifier Schedule Name
  ASHRAETau,                              ! Solar Model Indicator
  ,                                       ! Beam Solar Day Schedule Name
  ,                                       ! Diffuse Solar Day Schedule Name
  0.46,                                   ! ASHRAE Taub {dimensionless}
  1.996;                                  ! ASHRAE Taud {dimensionless}

OS:ComponentData,
  {400feb90-dcfc-49b4-b1ca-31f7e49001b2}, ! Handle
  Component Data 1,                       ! Name
  {1307b27b-7c30-4a54-a67e-33767a2905a8}, ! UUID
  {52558d60-566f-4f39-baa3-6847bc1e8a0c}, ! Version UUID
  1366308080,                             ! Creation Timestamp
  1366308080,                             ! Version Timestamp
  {0d5e14ad-fc80-4ffa-b3d6-cd94a320462d}; ! Name of Object 1

