
OS:Version,
  {3f736577-7383-43ce-b5aa-f6b52a150e13}, ! Handle
  0.9.3;                                  ! Version Identifier

OS:SizingPeriod:DesignDay,
  {58d2b26e-d077-44db-b571-009da7cfd030}, ! Handle
  New Bedford Rgnl Ann Clg 1% Condns DP=>MDB, ! Name
  25.4,                                   ! Maximum Dry-Bulb Temperature {C}
  9.9,                                    ! Daily Dry-Bulb Temperature Range {deltaC}
  22.5,                                   ! Humidity Indicating Conditions at Maximum Dry-Bulb {BasedOnField A3}
  101025,                                 ! Barometric Pressure {Pa}
  4.6,                                    ! Wind Speed {m/s}
  220,                                    ! Wind Direction {deg}
  0,                                      ! Sky Clearness
  0,                                      ! Rain Indicator
  0,                                      ! Snow Indicator
  21,                                     ! Day of Month
  7,                                      ! Month
  SummerDesignDay,                        ! Day Type
  0,                                      ! Daylight Saving Time Indicator
  Dewpoint,                               ! Humidity Indicating Type
  ,                                       ! Humidity Indicating Day Schedule Name
  DefaultMultipliers,                     ! Dry-Bulb Temperature Range Modifier Type
  ,                                       ! Dry-Bulb Temperature Range Modifier Schedule Name
  ASHRAETau,                              ! Solar Model Indicator
  ,                                       ! Beam Solar Day Schedule Name
  ,                                       ! Diffuse Solar Day Schedule Name
  0.512,                                  ! ASHRAE Taub {dimensionless}
  1.873;                                  ! ASHRAE Taud {dimensionless}

OS:ComponentData,
  {994bf559-b5d8-4412-adb0-655ccec4c065}, ! Handle
  Component Data 1,                       ! Name
  {cffd3d4e-ea61-40d1-a9bf-b7dec4bcf2cf}, ! UUID
  {ff28c041-446d-4bb7-a774-33f100e8f6d7}, ! Version UUID
  1366307806,                             ! Creation Timestamp
  1366307806,                             ! Version Timestamp
  {58d2b26e-d077-44db-b571-009da7cfd030}; ! Name of Object 1

