
OS:Version,
  {56b6a060-fd4a-4b3d-a818-7c0f47d6a1c9}, ! Handle
  0.9.3;                                  ! Version Identifier

OS:SizingPeriod:DesignDay,
  {c697d994-241a-4bf7-ba9a-a43f7e3e4767}, ! Handle
  Saint Mary S  Awos Ann Hum_n 99.6% Condns DP=>MCDB, ! Name
  -25.5,                                  ! Maximum Dry-Bulb Temperature {C}
  0,                                      ! Daily Dry-Bulb Temperature Range {deltaC}
  -33.9,                                  ! Humidity Indicating Conditions at Maximum Dry-Bulb {BasedOnField A3}
  100189,                                 ! Barometric Pressure {Pa}
  2.9,                                    ! Wind Speed {m/s}
  30,                                     ! Wind Direction {deg}
  0,                                      ! Sky Clearness
  0,                                      ! Rain Indicator
  0,                                      ! Snow Indicator
  21,                                     ! Day of Month
  1,                                      ! Month
  WinterDesignDay,                        ! Day Type
  0,                                      ! Daylight Saving Time Indicator
  Dewpoint,                               ! Humidity Indicating Type
  ,                                       ! Humidity Indicating Day Schedule Name
  DefaultMultipliers,                     ! Dry-Bulb Temperature Range Modifier Type
  ,                                       ! Dry-Bulb Temperature Range Modifier Schedule Name
  ASHRAEClearSky;                         ! Solar Model Indicator

OS:ComponentData,
  {a87396c1-59c4-458d-92df-6c26ff4f7c73}, ! Handle
  Component Data 1,                       ! Name
  {6be82bd0-140b-4c61-a705-68cb4c872e71}, ! UUID
  {1724aa78-86f7-43f7-bde1-42a16824564d}, ! Version UUID
  1366305512,                             ! Creation Timestamp
  1366305512,                             ! Version Timestamp
  {c697d994-241a-4bf7-ba9a-a43f7e3e4767}; ! Name of Object 1

