
OS:Version,
  {8f718e2f-cbcc-420e-b183-2d6d9336c85e}, ! Handle
  0.9.3;                                  ! Version Identifier

OS:SizingPeriod:DesignDay,
  {5d545157-a3a3-48aa-b642-9570100c93b4}, ! Handle
  Travis Field Afb Ann Clg 2% Condns Enth=>MDB, ! Name
  31,                                     ! Maximum Dry-Bulb Temperature {C}
  16.4,                                   ! Daily Dry-Bulb Temperature Range {deltaC}
  55300,                                  ! Humidity Indicating Conditions at Maximum Dry-Bulb {BasedOnField A3}
  101109,                                 ! Barometric Pressure {Pa}
  4.2,                                    ! Wind Speed {m/s}
  240,                                    ! Wind Direction {deg}
  0,                                      ! Sky Clearness
  0,                                      ! Rain Indicator
  0,                                      ! Snow Indicator
  21,                                     ! Day of Month
  7,                                      ! Month
  SummerDesignDay,                        ! Day Type
  0,                                      ! Daylight Saving Time Indicator
  Enthalpy,                               ! Humidity Indicating Type
  ,                                       ! Humidity Indicating Day Schedule Name
  DefaultMultipliers,                     ! Dry-Bulb Temperature Range Modifier Type
  ,                                       ! Dry-Bulb Temperature Range Modifier Schedule Name
  ASHRAETau,                              ! Solar Model Indicator
  ,                                       ! Beam Solar Day Schedule Name
  ,                                       ! Diffuse Solar Day Schedule Name
  0.374,                                  ! ASHRAE Taub {dimensionless}
  2.389;                                  ! ASHRAE Taud {dimensionless}

