
OS:Version,
  {e3c68236-8940-4610-bbbe-99019f159e7b}, ! Handle
  0.9.3;                                  ! Version Identifier

OS:SizingPeriod:DesignDay,
  {d9db7198-a0ad-4e0f-a8c7-8a72359d6ef0}, ! Handle
  Mercury Desert Rock Ap  Surfr Ann Htg 99% Condns DB, ! Name
  -1.8,                                   ! Maximum Dry-Bulb Temperature {C}
  0,                                      ! Daily Dry-Bulb Temperature Range {deltaC}
  -1.8,                                   ! Humidity Indicating Conditions at Maximum Dry-Bulb {BasedOnField A3}
  90585,                                  ! Barometric Pressure {Pa}
  3,                                      ! Wind Speed {m/s}
  30,                                     ! Wind Direction {deg}
  0,                                      ! Sky Clearness
  0,                                      ! Rain Indicator
  0,                                      ! Snow Indicator
  21,                                     ! Day of Month
  12,                                     ! Month
  WinterDesignDay,                        ! Day Type
  0,                                      ! Daylight Saving Time Indicator
  Wetbulb,                                ! Humidity Indicating Type
  ,                                       ! Humidity Indicating Day Schedule Name
  DefaultMultipliers,                     ! Dry-Bulb Temperature Range Modifier Type
  ,                                       ! Dry-Bulb Temperature Range Modifier Schedule Name
  ASHRAEClearSky;                         ! Solar Model Indicator

OS:ComponentData,
  {09e49b18-6485-4cdd-bef1-ccec63bec13a}, ! Handle
  Component Data 1,                       ! Name
  {7a2b82ac-11f2-4926-a47d-06fb33ff92e1}, ! UUID
  {1c9c5722-0817-4293-afd9-99e891d6c8b8}, ! Version UUID
  1366309520,                             ! Creation Timestamp
  1366309520,                             ! Version Timestamp
  {d9db7198-a0ad-4e0f-a8c7-8a72359d6ef0}; ! Name of Object 1

