
OS:Version,
  {25c0e01c-e160-4254-b854-a09e34509add}, ! Handle
  0.9.3;                                  ! Version Identifier

OS:SizingPeriod:DesignDay,
  {d346419b-27a9-4498-9d3c-f6122f46b5be}, ! Handle
  Manchester Airport Ann Hum_n 99.6% Condns DP=>MCDB, ! Name
  -14.7,                                  ! Maximum Dry-Bulb Temperature {C}
  0,                                      ! Daily Dry-Bulb Temperature Range {deltaC}
  -24.3,                                  ! Humidity Indicating Conditions at Maximum Dry-Bulb {BasedOnField A3}
  100499,                                 ! Barometric Pressure {Pa}
  3.4,                                    ! Wind Speed {m/s}
  330,                                    ! Wind Direction {deg}
  0,                                      ! Sky Clearness
  0,                                      ! Rain Indicator
  0,                                      ! Snow Indicator
  21,                                     ! Day of Month
  1,                                      ! Month
  WinterDesignDay,                        ! Day Type
  0,                                      ! Daylight Saving Time Indicator
  Dewpoint,                               ! Humidity Indicating Type
  ,                                       ! Humidity Indicating Day Schedule Name
  DefaultMultipliers,                     ! Dry-Bulb Temperature Range Modifier Type
  ,                                       ! Dry-Bulb Temperature Range Modifier Schedule Name
  ASHRAEClearSky;                         ! Solar Model Indicator

OS:ComponentData,
  {529d34a6-4b38-4de7-bd88-ef3d58aae8f1}, ! Handle
  Component Data 1,                       ! Name
  {30f56a70-5b79-497d-bd18-11c10a5d2a14}, ! UUID
  {847e7ebe-290e-403c-a2eb-90348f6f6084}, ! Version UUID
  1366309262,                             ! Creation Timestamp
  1366309262,                             ! Version Timestamp
  {d346419b-27a9-4498-9d3c-f6122f46b5be}; ! Name of Object 1

