
OS:Version,
  {6e29f97d-a2dd-4d6c-9357-18cc90df2f38}, ! Handle
  0.9.3;                                  ! Version Identifier

OS:SizingPeriod:DesignDay,
  {997bf208-9d8b-42b8-8b81-c28c316b0040}, ! Handle
  WATERLOO Ann Clg 1% Condns WB=>MDB,     ! Name
  29.7,                                   ! Maximum Dry-Bulb Temperature {C}
  11.2,                                   ! Daily Dry-Bulb Temperature Range {deltaC}
  24.8,                                   ! Humidity Indicating Conditions at Maximum Dry-Bulb {BasedOnField A3}
  98182,                                  ! Barometric Pressure {Pa}
  5.5,                                    ! Wind Speed {m/s}
  190,                                    ! Wind Direction {deg}
  0,                                      ! Sky Clearness
  0,                                      ! Rain Indicator
  0,                                      ! Snow Indicator
  21,                                     ! Day of Month
  7,                                      ! Month
  SummerDesignDay,                        ! Day Type
  0,                                      ! Daylight Saving Time Indicator
  Wetbulb,                                ! Humidity Indicating Type
  ,                                       ! Humidity Indicating Day Schedule Name
  DefaultMultipliers,                     ! Dry-Bulb Temperature Range Modifier Type
  ,                                       ! Dry-Bulb Temperature Range Modifier Schedule Name
  ASHRAETau,                              ! Solar Model Indicator
  ,                                       ! Beam Solar Day Schedule Name
  ,                                       ! Diffuse Solar Day Schedule Name
  0.427,                                  ! ASHRAE Taub {dimensionless}
  2.147;                                  ! ASHRAE Taud {dimensionless}

OS:ComponentData,
  {2e8ae539-9a1a-438c-9e47-9e1eeb1c285d}, ! Handle
  Component Data 1,                       ! Name
  {0d7c1d3e-9a00-40af-a4d7-1bd26224dca2}, ! UUID
  {3302ec7a-1209-4097-a57b-86be2e8d0835}, ! Version UUID
  1366307252,                             ! Creation Timestamp
  1366307252,                             ! Version Timestamp
  {997bf208-9d8b-42b8-8b81-c28c316b0040}; ! Name of Object 1

