
OS:Version,
  {b7f21d19-1604-40fc-b6ae-c74e3254796e}, ! Handle
  0.9.3;                                  ! Version Identifier

OS:SizingPeriod:DesignDay,
  {cf89a3a9-742a-4ee8-925c-33ca836e67a7}, ! Handle
  South Bend Ann Hum_n 99.6% Condns DP=>MCDB, ! Name
  -18.3,                                  ! Maximum Dry-Bulb Temperature {C}
  0,                                      ! Daily Dry-Bulb Temperature Range {deltaC}
  -22.4,                                  ! Humidity Indicating Conditions at Maximum Dry-Bulb {BasedOnField A3}
  98522,                                  ! Barometric Pressure {Pa}
  5.1,                                    ! Wind Speed {m/s}
  230,                                    ! Wind Direction {deg}
  0,                                      ! Sky Clearness
  0,                                      ! Rain Indicator
  0,                                      ! Snow Indicator
  21,                                     ! Day of Month
  1,                                      ! Month
  WinterDesignDay,                        ! Day Type
  0,                                      ! Daylight Saving Time Indicator
  Dewpoint,                               ! Humidity Indicating Type
  ,                                       ! Humidity Indicating Day Schedule Name
  DefaultMultipliers,                     ! Dry-Bulb Temperature Range Modifier Type
  ,                                       ! Dry-Bulb Temperature Range Modifier Schedule Name
  ASHRAEClearSky;                         ! Solar Model Indicator

OS:ComponentData,
  {4fd8662f-fe3f-4db0-8f17-9a453abc5dd4}, ! Handle
  Component Data 1,                       ! Name
  {0de61105-f45d-4617-b2e0-2802b1067aad}, ! UUID
  {11acbf48-148e-4b70-8c3e-2696b28c4ae2}, ! Version UUID
  1366307479,                             ! Creation Timestamp
  1366307479,                             ! Version Timestamp
  {cf89a3a9-742a-4ee8-925c-33ca836e67a7}; ! Name of Object 1

