
OS:Version,
  {86266171-e470-4eb1-b146-17019443f78f}, ! Handle
  0.9.3;                                  ! Version Identifier

OS:SizingPeriod:DesignDay,
  {33ec7563-c120-45f6-bc8d-61b095550b55}, ! Handle
  MEMPHIS Ann Hum_n 99.6% Condns DP=>MCDB, ! Name
  -5.5,                                   ! Maximum Dry-Bulb Temperature {C}
  0,                                      ! Daily Dry-Bulb Temperature Range {deltaC}
  -15.3,                                  ! Humidity Indicating Conditions at Maximum Dry-Bulb {BasedOnField A3}
  100284,                                 ! Barometric Pressure {Pa}
  4.1,                                    ! Wind Speed {m/s}
  0,                                      ! Wind Direction {deg}
  0,                                      ! Sky Clearness
  0,                                      ! Rain Indicator
  0,                                      ! Snow Indicator
  21,                                     ! Day of Month
  1,                                      ! Month
  WinterDesignDay,                        ! Day Type
  0,                                      ! Daylight Saving Time Indicator
  Dewpoint,                               ! Humidity Indicating Type
  ,                                       ! Humidity Indicating Day Schedule Name
  DefaultMultipliers,                     ! Dry-Bulb Temperature Range Modifier Type
  ,                                       ! Dry-Bulb Temperature Range Modifier Schedule Name
  ASHRAEClearSky;                         ! Solar Model Indicator

OS:ComponentData,
  {fec1bba2-1884-40bb-9712-055d2903ea30}, ! Handle
  Component Data 1,                       ! Name
  {07b7725c-ffbc-4757-a475-fbef432fc669}, ! UUID
  {1e2d147b-6ba6-417e-8e82-8bf5e4c37528}, ! Version UUID
  1366310520,                             ! Creation Timestamp
  1366310520,                             ! Version Timestamp
  {33ec7563-c120-45f6-bc8d-61b095550b55}; ! Name of Object 1

