
OS:Version,
  {a153a8ac-e4ce-42a5-9833-911fbdcd1379}, ! Handle
  0.9.3;                                  ! Version Identifier

OS:SizingPeriod:DesignDay,
  {3e017924-32c6-4895-bca7-06f15b32512e}, ! Handle
  Soldotna Ann Clg .4% Condns WB=>MDB,    ! Name
  20.6,                                   ! Maximum Dry-Bulb Temperature {C}
  8.4,                                    ! Daily Dry-Bulb Temperature Range {deltaC}
  14.9,                                   ! Humidity Indicating Conditions at Maximum Dry-Bulb {BasedOnField A3}
  100917,                                 ! Barometric Pressure {Pa}
  2.9,                                    ! Wind Speed {m/s}
  280,                                    ! Wind Direction {deg}
  0,                                      ! Sky Clearness
  0,                                      ! Rain Indicator
  0,                                      ! Snow Indicator
  21,                                     ! Day of Month
  7,                                      ! Month
  SummerDesignDay,                        ! Day Type
  0,                                      ! Daylight Saving Time Indicator
  Wetbulb,                                ! Humidity Indicating Type
  ,                                       ! Humidity Indicating Day Schedule Name
  DefaultMultipliers,                     ! Dry-Bulb Temperature Range Modifier Type
  ,                                       ! Dry-Bulb Temperature Range Modifier Schedule Name
  ASHRAETau,                              ! Solar Model Indicator
  ,                                       ! Beam Solar Day Schedule Name
  ,                                       ! Diffuse Solar Day Schedule Name
  0.376,                                  ! ASHRAE Taub {dimensionless}
  2.229;                                  ! ASHRAE Taud {dimensionless}

OS:ComponentData,
  {df0577b5-431f-4c16-9eb9-be3eaf3a06c9}, ! Handle
  Component Data 1,                       ! Name
  {09c80cda-6d32-478f-83d9-ad15ad26e48f}, ! UUID
  {a683fcfc-f32f-455d-bffe-952de96a9474}, ! Version UUID
  1366305567,                             ! Creation Timestamp
  1366305567,                             ! Version Timestamp
  {3e017924-32c6-4895-bca7-06f15b32512e}; ! Name of Object 1

