
OS:Version,
  {c1749f27-625d-479e-aca3-2e3b140c88c1}, ! Handle
  0.9.3;                                  ! Version Identifier

OS:SizingPeriod:DesignDay,
  {23d23fe1-6f54-4c97-994e-ca4d0468b753}, ! Handle
  Orlando Intl Arpt Ann Hum_n 99.6% Condns DP=>MCDB, ! Name
  8.3,                                    ! Maximum Dry-Bulb Temperature {C}
  0,                                      ! Daily Dry-Bulb Temperature Range {deltaC}
  -5.9,                                   ! Humidity Indicating Conditions at Maximum Dry-Bulb {BasedOnField A3}
  100977,                                 ! Barometric Pressure {Pa}
  3.4,                                    ! Wind Speed {m/s}
  340,                                    ! Wind Direction {deg}
  0,                                      ! Sky Clearness
  0,                                      ! Rain Indicator
  0,                                      ! Snow Indicator
  21,                                     ! Day of Month
  1,                                      ! Month
  WinterDesignDay,                        ! Day Type
  0,                                      ! Daylight Saving Time Indicator
  Dewpoint,                               ! Humidity Indicating Type
  ,                                       ! Humidity Indicating Day Schedule Name
  DefaultMultipliers,                     ! Dry-Bulb Temperature Range Modifier Type
  ,                                       ! Dry-Bulb Temperature Range Modifier Schedule Name
  ASHRAEClearSky;                         ! Solar Model Indicator

OS:ComponentData,
  {da48c1d1-be40-4b8c-9146-e94b111c491d}, ! Handle
  Component Data 1,                       ! Name
  {02defe75-8cff-44bc-be2d-96b1086109f4}, ! UUID
  {493e3d2e-b40a-4b1b-b9b6-8d9bdf582604}, ! Version UUID
  1366306895,                             ! Creation Timestamp
  1366306895,                             ! Version Timestamp
  {23d23fe1-6f54-4c97-994e-ca4d0468b753}; ! Name of Object 1

