
OS:Version,
  {2a16f230-cb67-4a16-b07c-7da3d129b816}, ! Handle
  0.9.3;                                  ! Version Identifier

OS:SizingPeriod:DesignDay,
  {20f540f8-3314-4f8f-a60b-fe7d9881527f}, ! Handle
  Sterling Rockfalls Ann Clg 2% Condns Enth=>MDB, ! Name
  28,                                     ! Maximum Dry-Bulb Temperature {C}
  11.1,                                   ! Daily Dry-Bulb Temperature Range {deltaC}
  69800,                                  ! Humidity Indicating Conditions at Maximum Dry-Bulb {BasedOnField A3}
  98981,                                  ! Barometric Pressure {Pa}
  3.6,                                    ! Wind Speed {m/s}
  220,                                    ! Wind Direction {deg}
  0,                                      ! Sky Clearness
  0,                                      ! Rain Indicator
  0,                                      ! Snow Indicator
  21,                                     ! Day of Month
  7,                                      ! Month
  SummerDesignDay,                        ! Day Type
  0,                                      ! Daylight Saving Time Indicator
  Enthalpy,                               ! Humidity Indicating Type
  ,                                       ! Humidity Indicating Day Schedule Name
  DefaultMultipliers,                     ! Dry-Bulb Temperature Range Modifier Type
  ,                                       ! Dry-Bulb Temperature Range Modifier Schedule Name
  ASHRAETau,                              ! Solar Model Indicator
  ,                                       ! Beam Solar Day Schedule Name
  ,                                       ! Diffuse Solar Day Schedule Name
  0.443,                                  ! ASHRAE Taub {dimensionless}
  2.098;                                  ! ASHRAE Taud {dimensionless}

OS:ComponentData,
  {7e49a44e-91b1-4cbe-bf7d-2e0305b0580e}, ! Handle
  Component Data 1,                       ! Name
  {729f83c3-ff78-4aff-ac03-dc4d6532194e}, ! UUID
  {a23a8b33-18e3-4e88-8afc-c2fd3630650f}, ! Version UUID
  1366307414,                             ! Creation Timestamp
  1366307414,                             ! Version Timestamp
  {20f540f8-3314-4f8f-a60b-fe7d9881527f}; ! Name of Object 1

