
OS:Version,
  {33cfdaa3-1cf8-4c62-9241-f11f4ff3df92}, ! Handle
  0.9.3;                                  ! Version Identifier

OS:SizingPeriod:DesignDay,
  {d3f4480a-a48a-4cfe-a08a-e3d8577f0896}, ! Handle
  Sierra Blanca Rgnl Ann Htg Wind 99.6% Condns WS=>MCDB, ! Name
  6.7,                                    ! Maximum Dry-Bulb Temperature {C}
  0,                                      ! Daily Dry-Bulb Temperature Range {deltaC}
  6.7,                                    ! Humidity Indicating Conditions at Maximum Dry-Bulb {BasedOnField A3}
  78728,                                  ! Barometric Pressure {Pa}
  16.6,                                   ! Wind Speed {m/s}
  130,                                    ! Wind Direction {deg}
  0,                                      ! Sky Clearness
  0,                                      ! Rain Indicator
  0,                                      ! Snow Indicator
  21,                                     ! Day of Month
  12,                                     ! Month
  WinterDesignDay,                        ! Day Type
  0,                                      ! Daylight Saving Time Indicator
  Wetbulb,                                ! Humidity Indicating Type
  ,                                       ! Humidity Indicating Day Schedule Name
  DefaultMultipliers,                     ! Dry-Bulb Temperature Range Modifier Type
  ,                                       ! Dry-Bulb Temperature Range Modifier Schedule Name
  ASHRAEClearSky;                         ! Solar Model Indicator

OS:ComponentData,
  {36112f54-93d7-4b24-b520-18d84f266c5b}, ! Handle
  Component Data 1,                       ! Name
  {748c701d-6050-49b0-a5b5-b1d94153ca3d}, ! UUID
  {1ebb240d-e489-4483-b00d-a4d1d01e4d91}, ! Version UUID
  1366309432,                             ! Creation Timestamp
  1366309432,                             ! Version Timestamp
  {d3f4480a-a48a-4cfe-a08a-e3d8577f0896}; ! Name of Object 1

