
OS:Version,
  {0ff94ec2-f5af-47f0-bbcd-ce2d9a530518}, ! Handle
  0.9.3;                                  ! Version Identifier

OS:SizingPeriod:DesignDay,
  {ad2b67b4-f587-40b9-9b97-59ef53f4afb1}, ! Handle
  Victoria Regional Ap Ann Hum_n 99.6% Condns DP=>MCDB, ! Name
  4.3,                                    ! Maximum Dry-Bulb Temperature {C}
  0,                                      ! Daily Dry-Bulb Temperature Range {deltaC}
  -7.9,                                   ! Humidity Indicating Conditions at Maximum Dry-Bulb {BasedOnField A3}
  100905,                                 ! Barometric Pressure {Pa}
  4.7,                                    ! Wind Speed {m/s}
  0,                                      ! Wind Direction {deg}
  0,                                      ! Sky Clearness
  0,                                      ! Rain Indicator
  0,                                      ! Snow Indicator
  21,                                     ! Day of Month
  1,                                      ! Month
  WinterDesignDay,                        ! Day Type
  0,                                      ! Daylight Saving Time Indicator
  Dewpoint,                               ! Humidity Indicating Type
  ,                                       ! Humidity Indicating Day Schedule Name
  DefaultMultipliers,                     ! Dry-Bulb Temperature Range Modifier Type
  ,                                       ! Dry-Bulb Temperature Range Modifier Schedule Name
  ASHRAEClearSky;                         ! Solar Model Indicator

OS:ComponentData,
  {39fcdb9e-9bf0-4e64-b7f1-22c2b9c1c52c}, ! Handle
  Component Data 1,                       ! Name
  {9d02ecd1-82bc-4fbc-8502-7ab03ae2151b}, ! UUID
  {9546472a-4099-4701-aed1-f18aa7ad7779}, ! Version UUID
  1366310912,                             ! Creation Timestamp
  1366310912,                             ! Version Timestamp
  {ad2b67b4-f587-40b9-9b97-59ef53f4afb1}; ! Name of Object 1

