
OS:Version,
  {1862515a-093d-4943-ae2f-b65676e27fc2}, ! Handle
  0.9.3;                                  ! Version Identifier

OS:SizingPeriod:DesignDay,
  {41562003-d6d1-46a6-bc01-aac11f8f6804}, ! Handle
  Topeka Ann Clg 1% Condns DB=>MWB,       ! Name
  34.5,                                   ! Maximum Dry-Bulb Temperature {C}
  11.3,                                   ! Daily Dry-Bulb Temperature Range {deltaC}
  24.3,                                   ! Humidity Indicating Conditions at Maximum Dry-Bulb {BasedOnField A3}
  98123,                                  ! Barometric Pressure {Pa}
  4.9,                                    ! Wind Speed {m/s}
  200,                                    ! Wind Direction {deg}
  0,                                      ! Sky Clearness
  0,                                      ! Rain Indicator
  0,                                      ! Snow Indicator
  21,                                     ! Day of Month
  7,                                      ! Month
  SummerDesignDay,                        ! Day Type
  0,                                      ! Daylight Saving Time Indicator
  Wetbulb,                                ! Humidity Indicating Type
  ,                                       ! Humidity Indicating Day Schedule Name
  DefaultMultipliers,                     ! Dry-Bulb Temperature Range Modifier Type
  ,                                       ! Dry-Bulb Temperature Range Modifier Schedule Name
  ASHRAETau,                              ! Solar Model Indicator
  ,                                       ! Beam Solar Day Schedule Name
  ,                                       ! Diffuse Solar Day Schedule Name
  0.434,                                  ! ASHRAE Taub {dimensionless}
  2.183;                                  ! ASHRAE Taud {dimensionless}

OS:ComponentData,
  {f12f21aa-c114-4b88-ba84-c89005db41b6}, ! Handle
  Component Data 1,                       ! Name
  {8a83fb67-3f2f-4b3c-a3cd-0d7342a93ae5}, ! UUID
  {d58f68bf-a561-4e7d-a0db-e5cebbcbb455}, ! Version UUID
  1366307583,                             ! Creation Timestamp
  1366307583,                             ! Version Timestamp
  {41562003-d6d1-46a6-bc01-aac11f8f6804}; ! Name of Object 1

