
OS:Version,
  {e8a8b456-e5a1-4866-915b-2cf064631d05}, ! Handle
  0.9.3;                                  ! Version Identifier

OS:SizingPeriod:DesignDay,
  {3493f636-faa9-41e5-a364-61ff5dc0e238}, ! Handle
  Savannah Intl Ap Ann Clg 1% Condns WB=>MDB, ! Name
  31.2,                                   ! Maximum Dry-Bulb Temperature {C}
  10,                                     ! Daily Dry-Bulb Temperature Range {deltaC}
  26.2,                                   ! Humidity Indicating Conditions at Maximum Dry-Bulb {BasedOnField A3}
  101157,                                 ! Barometric Pressure {Pa}
  3.7,                                    ! Wind Speed {m/s}
  290,                                    ! Wind Direction {deg}
  0,                                      ! Sky Clearness
  0,                                      ! Rain Indicator
  0,                                      ! Snow Indicator
  21,                                     ! Day of Month
  7,                                      ! Month
  SummerDesignDay,                        ! Day Type
  0,                                      ! Daylight Saving Time Indicator
  Wetbulb,                                ! Humidity Indicating Type
  ,                                       ! Humidity Indicating Day Schedule Name
  DefaultMultipliers,                     ! Dry-Bulb Temperature Range Modifier Type
  ,                                       ! Dry-Bulb Temperature Range Modifier Schedule Name
  ASHRAETau,                              ! Solar Model Indicator
  ,                                       ! Beam Solar Day Schedule Name
  ,                                       ! Diffuse Solar Day Schedule Name
  0.558,                                  ! ASHRAE Taub {dimensionless}
  1.811;                                  ! ASHRAE Taud {dimensionless}

OS:ComponentData,
  {f086a523-b82f-4af8-ab8b-e61d2aabb96f}, ! Handle
  Component Data 1,                       ! Name
  {b4a00b10-ab04-4a82-b934-a7df82aba6df}, ! UUID
  {94cb4300-c9fb-4cdf-8965-41073e927bdc}, ! Version UUID
  1366307057,                             ! Creation Timestamp
  1366307057,                             ! Version Timestamp
  {3493f636-faa9-41e5-a364-61ff5dc0e238}; ! Name of Object 1

