
OS:Version,
  {6f8ea94f-d77f-4a60-8839-5e1a89ae87f8}, ! Handle
  0.9.3;                                  ! Version Identifier

OS:SizingPeriod:DesignDay,
  {b74ad636-7d49-4e28-aa2f-a7f4da42de5a}, ! Handle
  Paducah Barkley Regional Ap Ann Hum_n 99.6% Condns DP=>MCDB, ! Name
  -11.8,                                  ! Maximum Dry-Bulb Temperature {C}
  0,                                      ! Daily Dry-Bulb Temperature Range {deltaC}
  -18,                                    ! Humidity Indicating Conditions at Maximum Dry-Bulb {BasedOnField A3}
  99844,                                  ! Barometric Pressure {Pa}
  3.4,                                    ! Wind Speed {m/s}
  10,                                     ! Wind Direction {deg}
  0,                                      ! Sky Clearness
  0,                                      ! Rain Indicator
  0,                                      ! Snow Indicator
  21,                                     ! Day of Month
  1,                                      ! Month
  WinterDesignDay,                        ! Day Type
  0,                                      ! Daylight Saving Time Indicator
  Dewpoint,                               ! Humidity Indicating Type
  ,                                       ! Humidity Indicating Day Schedule Name
  DefaultMultipliers,                     ! Dry-Bulb Temperature Range Modifier Type
  ,                                       ! Dry-Bulb Temperature Range Modifier Schedule Name
  ASHRAEClearSky;                         ! Solar Model Indicator

OS:ComponentData,
  {1e607b69-1523-4c58-a4ef-5cb59c5c8318}, ! Handle
  Component Data 1,                       ! Name
  {54da3a02-00d9-468f-a149-fe4af8a6cafb}, ! UUID
  {5c5f924e-3385-4aea-9f6e-50506dfd6398}, ! Version UUID
  1366307678,                             ! Creation Timestamp
  1366307678,                             ! Version Timestamp
  {b74ad636-7d49-4e28-aa2f-a7f4da42de5a}; ! Name of Object 1

