
OS:Version,
  {210b545f-65af-4134-a85f-3d02ab8b45a5}, ! Handle
  0.9.3;                                  ! Version Identifier

OS:SizingPeriod:DesignDay,
  {62da1b86-4015-4b70-92ab-7c75759a9f4a}, ! Handle
  RALEIGH Ann Clg .4% Condns Enth=>MDB,   ! Name
  31.8,                                   ! Maximum Dry-Bulb Temperature {C}
  10.5,                                   ! Daily Dry-Bulb Temperature Range {deltaC}
  79600,                                  ! Humidity Indicating Conditions at Maximum Dry-Bulb {BasedOnField A3}
  99726,                                  ! Barometric Pressure {Pa}
  4,                                      ! Wind Speed {m/s}
  240,                                    ! Wind Direction {deg}
  0,                                      ! Sky Clearness
  0,                                      ! Rain Indicator
  0,                                      ! Snow Indicator
  21,                                     ! Day of Month
  7,                                      ! Month
  SummerDesignDay,                        ! Day Type
  0,                                      ! Daylight Saving Time Indicator
  Enthalpy,                               ! Humidity Indicating Type
  ,                                       ! Humidity Indicating Day Schedule Name
  DefaultMultipliers,                     ! Dry-Bulb Temperature Range Modifier Type
  ,                                       ! Dry-Bulb Temperature Range Modifier Schedule Name
  ASHRAETau,                              ! Solar Model Indicator
  ,                                       ! Beam Solar Day Schedule Name
  ,                                       ! Diffuse Solar Day Schedule Name
  0.577,                                  ! ASHRAE Taub {dimensionless}
  1.722;                                  ! ASHRAE Taud {dimensionless}

OS:ComponentData,
  {0917616d-49ac-47b7-92b6-b32d71164806}, ! Handle
  Component Data 1,                       ! Name
  {21a4119c-be80-4d7f-a57e-ae94c3da0afb}, ! UUID
  {6a37d3f8-a075-471b-bde8-5b822513d023}, ! Version UUID
  1366308966,                             ! Creation Timestamp
  1366308966,                             ! Version Timestamp
  {62da1b86-4015-4b70-92ab-7c75759a9f4a}; ! Name of Object 1

