
OS:Version,
  {040d6eea-aae1-426e-844a-b8d6fb46ea9c}, ! Handle
  0.9.3;                                  ! Version Identifier

OS:SizingPeriod:DesignDay,
  {6ca27f0d-5422-48ac-8968-1336d3c71b98}, ! Handle
  PORT_ARTHUR Ann Clg .4% Condns WB=>MDB, ! Name
  31.6,                                   ! Maximum Dry-Bulb Temperature {C}
  8.9,                                    ! Daily Dry-Bulb Temperature Range {deltaC}
  27.6,                                   ! Humidity Indicating Conditions at Maximum Dry-Bulb {BasedOnField A3}
  101241,                                 ! Barometric Pressure {Pa}
  3.6,                                    ! Wind Speed {m/s}
  200,                                    ! Wind Direction {deg}
  0,                                      ! Sky Clearness
  0,                                      ! Rain Indicator
  0,                                      ! Snow Indicator
  21,                                     ! Day of Month
  7,                                      ! Month
  SummerDesignDay,                        ! Day Type
  0,                                      ! Daylight Saving Time Indicator
  Wetbulb,                                ! Humidity Indicating Type
  ,                                       ! Humidity Indicating Day Schedule Name
  DefaultMultipliers,                     ! Dry-Bulb Temperature Range Modifier Type
  ,                                       ! Dry-Bulb Temperature Range Modifier Schedule Name
  ASHRAETau,                              ! Solar Model Indicator
  ,                                       ! Beam Solar Day Schedule Name
  ,                                       ! Diffuse Solar Day Schedule Name
  0.515,                                  ! ASHRAE Taub {dimensionless}
  1.943;                                  ! ASHRAE Taud {dimensionless}

OS:ComponentData,
  {962b437f-a982-4c98-a1cc-322b5741b726}, ! Handle
  Component Data 1,                       ! Name
  {ee1b9f6d-b315-40ef-bac3-21f43efe588a}, ! UUID
  {1eac10d8-9b28-4cf2-bd6a-463228458321}, ! Version UUID
  1366310595,                             ! Creation Timestamp
  1366310595,                             ! Version Timestamp
  {6ca27f0d-5422-48ac-8968-1336d3c71b98}; ! Name of Object 1

