
OS:Version,
  {02313554-5232-4a29-88ae-94c449f3d7be}, ! Handle
  0.9.3;                                  ! Version Identifier

OS:SizingPeriod:DesignDay,
  {b61d13c5-9b5f-45da-a462-96e1c7cbcdc1}, ! Handle
  Portland Hillsboro Ann Htg 99.6% Condns DB, ! Name
  -5.7,                                   ! Maximum Dry-Bulb Temperature {C}
  0,                                      ! Daily Dry-Bulb Temperature Range {deltaC}
  -5.7,                                   ! Humidity Indicating Conditions at Maximum Dry-Bulb {BasedOnField A3}
  100582,                                 ! Barometric Pressure {Pa}
  2.4,                                    ! Wind Speed {m/s}
  60,                                     ! Wind Direction {deg}
  0,                                      ! Sky Clearness
  0,                                      ! Rain Indicator
  0,                                      ! Snow Indicator
  21,                                     ! Day of Month
  12,                                     ! Month
  WinterDesignDay,                        ! Day Type
  0,                                      ! Daylight Saving Time Indicator
  Wetbulb,                                ! Humidity Indicating Type
  ,                                       ! Humidity Indicating Day Schedule Name
  DefaultMultipliers,                     ! Dry-Bulb Temperature Range Modifier Type
  ,                                       ! Dry-Bulb Temperature Range Modifier Schedule Name
  ASHRAEClearSky;                         ! Solar Model Indicator

OS:ComponentData,
  {c957373c-a36c-41b4-ac87-f465a930de79}, ! Handle
  Component Data 1,                       ! Name
  {2ce7cab2-3ca5-432b-89e0-59842e30fcf8}, ! UUID
  {8d62880e-a520-4cdd-9107-69cf9601e6a2}, ! Version UUID
  1366310066,                             ! Creation Timestamp
  1366310066,                             ! Version Timestamp
  {b61d13c5-9b5f-45da-a462-96e1c7cbcdc1}; ! Name of Object 1

