
OS:Version,
  {033d5532-16b9-4062-a634-d42302b4fb4e}, ! Handle
  0.9.3;                                  ! Version Identifier

OS:SizingPeriod:DesignDay,
  {d65b4dea-8a63-4977-b87a-b73d779a050d}, ! Handle
  Newark International Arpt Ann Clg 2% Condns Enth=>MDB, ! Name
  28.6,                                   ! Maximum Dry-Bulb Temperature {C}
  8.9,                                    ! Daily Dry-Bulb Temperature Range {deltaC}
  71500,                                  ! Humidity Indicating Conditions at Maximum Dry-Bulb {BasedOnField A3}
  101289,                                 ! Barometric Pressure {Pa}
  5.8,                                    ! Wind Speed {m/s}
  250,                                    ! Wind Direction {deg}
  0,                                      ! Sky Clearness
  0,                                      ! Rain Indicator
  0,                                      ! Snow Indicator
  21,                                     ! Day of Month
  7,                                      ! Month
  SummerDesignDay,                        ! Day Type
  0,                                      ! Daylight Saving Time Indicator
  Enthalpy,                               ! Humidity Indicating Type
  ,                                       ! Humidity Indicating Day Schedule Name
  DefaultMultipliers,                     ! Dry-Bulb Temperature Range Modifier Type
  ,                                       ! Dry-Bulb Temperature Range Modifier Schedule Name
  ASHRAETau,                              ! Solar Model Indicator
  ,                                       ! Beam Solar Day Schedule Name
  ,                                       ! Diffuse Solar Day Schedule Name
  0.528,                                  ! ASHRAE Taub {dimensionless}
  1.831;                                  ! ASHRAE Taud {dimensionless}

OS:ComponentData,
  {4ec9b8f2-f85d-4d4b-9adc-5cda8626d928}, ! Handle
  Component Data 1,                       ! Name
  {c5b575f7-4ff8-44d9-a929-2b302eaa93d7}, ! UUID
  {2c06f97c-b2fc-4894-8101-0ca47104d141}, ! Version UUID
  1366309340,                             ! Creation Timestamp
  1366309340,                             ! Version Timestamp
  {d65b4dea-8a63-4977-b87a-b73d779a050d}; ! Name of Object 1

