
OS:Version,
  {3a6186ea-b697-4c99-b6d9-1e574e112b20}, ! Handle
  0.9.3;                                  ! Version Identifier

OS:SizingPeriod:DesignDay,
  {d9c4e8cd-4a10-4a90-82f1-718f640f89ca}, ! Handle
  NEW_YORK Ann Clg 2% Condns DP=>MDB,     ! Name
  25.5,                                   ! Maximum Dry-Bulb Temperature {C}
  7.4,                                    ! Daily Dry-Bulb Temperature Range {deltaC}
  22.6,                                   ! Humidity Indicating Conditions at Maximum Dry-Bulb {BasedOnField A3}
  100642,                                 ! Barometric Pressure {Pa}
  5.6,                                    ! Wind Speed {m/s}
  230,                                    ! Wind Direction {deg}
  0,                                      ! Sky Clearness
  0,                                      ! Rain Indicator
  0,                                      ! Snow Indicator
  21,                                     ! Day of Month
  7,                                      ! Month
  SummerDesignDay,                        ! Day Type
  0,                                      ! Daylight Saving Time Indicator
  Dewpoint,                               ! Humidity Indicating Type
  ,                                       ! Humidity Indicating Day Schedule Name
  DefaultMultipliers,                     ! Dry-Bulb Temperature Range Modifier Type
  ,                                       ! Dry-Bulb Temperature Range Modifier Schedule Name
  ASHRAETau,                              ! Solar Model Indicator
  ,                                       ! Beam Solar Day Schedule Name
  ,                                       ! Diffuse Solar Day Schedule Name
  0.541,                                  ! ASHRAE Taub {dimensionless}
  1.8;                                    ! ASHRAE Taud {dimensionless}

OS:ComponentData,
  {0d8522ff-146a-458b-a78a-e14000a4dd3b}, ! Handle
  Component Data 1,                       ! Name
  {1303f41b-d0f3-4666-ba3b-8142ad883abd}, ! UUID
  {6f60ca0e-56f9-42aa-b76e-66dc912e272b}, ! Version UUID
  1366309690,                             ! Creation Timestamp
  1366309690,                             ! Version Timestamp
  {d9c4e8cd-4a10-4a90-82f1-718f640f89ca}; ! Name of Object 1

