
OS:Version,
  {56ea22e5-0415-4a14-a781-43e2548caa3c}, ! Handle
  0.9.3;                                  ! Version Identifier

OS:SizingPeriod:DesignDay,
  {976c9b8c-5474-4a76-b495-4558115f7c18}, ! Handle
  Orr Ann Clg 2% Condns Enth=>MDB,        ! Name
  24.7,                                   ! Maximum Dry-Bulb Temperature {C}
  12.4,                                   ! Daily Dry-Bulb Temperature Range {deltaC}
  62800,                                  ! Humidity Indicating Conditions at Maximum Dry-Bulb {BasedOnField A3}
  96646,                                  ! Barometric Pressure {Pa}
  4.3,                                    ! Wind Speed {m/s}
  190,                                    ! Wind Direction {deg}
  0,                                      ! Sky Clearness
  0,                                      ! Rain Indicator
  0,                                      ! Snow Indicator
  21,                                     ! Day of Month
  7,                                      ! Month
  SummerDesignDay,                        ! Day Type
  0,                                      ! Daylight Saving Time Indicator
  Enthalpy,                               ! Humidity Indicating Type
  ,                                       ! Humidity Indicating Day Schedule Name
  DefaultMultipliers,                     ! Dry-Bulb Temperature Range Modifier Type
  ,                                       ! Dry-Bulb Temperature Range Modifier Schedule Name
  ASHRAETau,                              ! Solar Model Indicator
  ,                                       ! Beam Solar Day Schedule Name
  ,                                       ! Diffuse Solar Day Schedule Name
  0.404,                                  ! ASHRAE Taub {dimensionless}
  2.189;                                  ! ASHRAE Taud {dimensionless}

OS:ComponentData,
  {baebfb31-a88e-49cc-ad7d-3bc14d8f0d45}, ! Handle
  Component Data 1,                       ! Name
  {11d43d89-99ed-45ff-a64e-af25e66281f1}, ! UUID
  {cf47e582-73e7-490b-b4be-e695fae7b0a4}, ! Version UUID
  1366308349,                             ! Creation Timestamp
  1366308349,                             ! Version Timestamp
  {976c9b8c-5474-4a76-b495-4558115f7c18}; ! Name of Object 1

