
OS:Version,
  {f6ecc3e1-37ba-4e94-93cf-11356ef1675d}, ! Handle
  0.9.3;                                  ! Version Identifier

OS:SizingPeriod:DesignDay,
  {660decf7-443e-4bdd-9cc2-29d1ce32ba5b}, ! Handle
  Ogden Hill Afb Ann Hum_n 99% Condns DP=>MCDB, ! Name
  -9.2,                                   ! Maximum Dry-Bulb Temperature {C}
  0,                                      ! Daily Dry-Bulb Temperature Range {deltaC}
  -15.7,                                  ! Humidity Indicating Conditions at Maximum Dry-Bulb {BasedOnField A3}
  84982,                                  ! Barometric Pressure {Pa}
  5.2,                                    ! Wind Speed {m/s}
  100,                                    ! Wind Direction {deg}
  0,                                      ! Sky Clearness
  0,                                      ! Rain Indicator
  0,                                      ! Snow Indicator
  21,                                     ! Day of Month
  1,                                      ! Month
  WinterDesignDay,                        ! Day Type
  0,                                      ! Daylight Saving Time Indicator
  Dewpoint,                               ! Humidity Indicating Type
  ,                                       ! Humidity Indicating Day Schedule Name
  DefaultMultipliers,                     ! Dry-Bulb Temperature Range Modifier Type
  ,                                       ! Dry-Bulb Temperature Range Modifier Schedule Name
  ASHRAEClearSky;                         ! Solar Model Indicator

OS:ComponentData,
  {fc1674b5-c4cc-4b8e-a57e-18b675a56f89}, ! Handle
  Component Data 1,                       ! Name
  {465a002b-3bed-4944-9fd3-8c7d4a8f2537}, ! UUID
  {ecb2e1bb-d3aa-4fd2-a1c9-eab713ccf79e}, ! Version UUID
  1366310969,                             ! Creation Timestamp
  1366310969,                             ! Version Timestamp
  {660decf7-443e-4bdd-9cc2-29d1ce32ba5b}; ! Name of Object 1

