
OS:Version,
  {6b3e7e4a-eb2a-4b1e-b02a-0dd18a4d217f}, ! Handle
  0.9.3;                                  ! Version Identifier

OS:SizingPeriod:DesignDay,
  {f3ab276c-8e12-485b-b5e3-daf0909c39c1}, ! Handle
  Oklahoma City Will Rogers Wor Ann Hum_n 99% Condns DP=>MCDB, ! Name
  -6.3,                                   ! Maximum Dry-Bulb Temperature {C}
  0,                                      ! Daily Dry-Bulb Temperature Range {deltaC}
  -14.6,                                  ! Humidity Indicating Conditions at Maximum Dry-Bulb {BasedOnField A3}
  96634,                                  ! Barometric Pressure {Pa}
  6.1,                                    ! Wind Speed {m/s}
  0,                                      ! Wind Direction {deg}
  0,                                      ! Sky Clearness
  0,                                      ! Rain Indicator
  0,                                      ! Snow Indicator
  21,                                     ! Day of Month
  1,                                      ! Month
  WinterDesignDay,                        ! Day Type
  0,                                      ! Daylight Saving Time Indicator
  Dewpoint,                               ! Humidity Indicating Type
  ,                                       ! Humidity Indicating Day Schedule Name
  DefaultMultipliers,                     ! Dry-Bulb Temperature Range Modifier Type
  ,                                       ! Dry-Bulb Temperature Range Modifier Schedule Name
  ASHRAEClearSky;                         ! Solar Model Indicator

OS:ComponentData,
  {29aece9c-1d25-44d2-81cc-df72d04963b5}, ! Handle
  Component Data 1,                       ! Name
  {392a2464-282f-442a-8bb4-0d48cdc1e578}, ! UUID
  {ea021d35-08f3-42b9-8b8d-f66c12e85457}, ! Version UUID
  1366309926,                             ! Creation Timestamp
  1366309926,                             ! Version Timestamp
  {f3ab276c-8e12-485b-b5e3-daf0909c39c1}; ! Name of Object 1

