
OS:Version,
  {25fecb6a-bd5c-46e8-8be8-5155c44556ec}, ! Handle
  0.9.3;                                  ! Version Identifier

OS:SizingPeriod:DesignDay,
  {09344f8b-b9cc-41e7-9bb4-4fd33ddc2898}, ! Handle
  Pueblo Memorial Ap Ann Clg .4% Condns Enth=>MDB, ! Name
  29.2,                                   ! Maximum Dry-Bulb Temperature {C}
  18,                                     ! Daily Dry-Bulb Temperature Range {deltaC}
  62200,                                  ! Humidity Indicating Conditions at Maximum Dry-Bulb {BasedOnField A3}
  85306,                                  ! Barometric Pressure {Pa}
  5.1,                                    ! Wind Speed {m/s}
  120,                                    ! Wind Direction {deg}
  0,                                      ! Sky Clearness
  0,                                      ! Rain Indicator
  0,                                      ! Snow Indicator
  21,                                     ! Day of Month
  7,                                      ! Month
  SummerDesignDay,                        ! Day Type
  0,                                      ! Daylight Saving Time Indicator
  Enthalpy,                               ! Humidity Indicating Type
  ,                                       ! Humidity Indicating Day Schedule Name
  DefaultMultipliers,                     ! Dry-Bulb Temperature Range Modifier Type
  ,                                       ! Dry-Bulb Temperature Range Modifier Schedule Name
  ASHRAETau,                              ! Solar Model Indicator
  ,                                       ! Beam Solar Day Schedule Name
  ,                                       ! Diffuse Solar Day Schedule Name
  0.435,                                  ! ASHRAE Taub {dimensionless}
  1.969;                                  ! ASHRAE Taud {dimensionless}

OS:ComponentData,
  {0d8dc044-4931-4852-9245-1538e7754225}, ! Handle
  Component Data 1,                       ! Name
  {ca40cf90-b37e-4819-b5da-877483d4c591}, ! UUID
  {c2d794cd-8445-487e-80b4-40234f89c624}, ! Version UUID
  1366306732,                             ! Creation Timestamp
  1366306732,                             ! Version Timestamp
  {09344f8b-b9cc-41e7-9bb4-4fd33ddc2898}; ! Name of Object 1

