
OS:Version,
  {4439c510-b891-4453-b913-5868dc8f2747}, ! Handle
  0.9.3;                                  ! Version Identifier

OS:SizingPeriod:DesignDay,
  {498519cb-c0d6-4d50-a69b-a063cf574a12}, ! Handle
  Youngstown Regional Airport Ann Clg 1% Condns WB=>MDB, ! Name
  27.8,                                   ! Maximum Dry-Bulb Temperature {C}
  11.5,                                   ! Daily Dry-Bulb Temperature Range {deltaC}
  23,                                     ! Humidity Indicating Conditions at Maximum Dry-Bulb {BasedOnField A3}
  97074,                                  ! Barometric Pressure {Pa}
  4.3,                                    ! Wind Speed {m/s}
  230,                                    ! Wind Direction {deg}
  0,                                      ! Sky Clearness
  0,                                      ! Rain Indicator
  0,                                      ! Snow Indicator
  21,                                     ! Day of Month
  7,                                      ! Month
  SummerDesignDay,                        ! Day Type
  0,                                      ! Daylight Saving Time Indicator
  Wetbulb,                                ! Humidity Indicating Type
  ,                                       ! Humidity Indicating Day Schedule Name
  DefaultMultipliers,                     ! Dry-Bulb Temperature Range Modifier Type
  ,                                       ! Dry-Bulb Temperature Range Modifier Schedule Name
  ASHRAETau,                              ! Solar Model Indicator
  ,                                       ! Beam Solar Day Schedule Name
  ,                                       ! Diffuse Solar Day Schedule Name
  0.456,                                  ! ASHRAE Taub {dimensionless}
  2.022;                                  ! ASHRAE Taud {dimensionless}

OS:ComponentData,
  {4adebca3-208e-402c-a47e-91a9f16d683b}, ! Handle
  Component Data 1,                       ! Name
  {2e272186-e2c3-402f-b0f9-0950b2435f9e}, ! UUID
  {c2555192-b765-47c5-aa52-32440b6c0eef}, ! Version UUID
  1366309870,                             ! Creation Timestamp
  1366309870,                             ! Version Timestamp
  {498519cb-c0d6-4d50-a69b-a063cf574a12}; ! Name of Object 1

