
OS:Version,
  {09221096-b004-40d9-bd4f-c94b85c0d6c4}, ! Handle
  0.9.3;                                  ! Version Identifier

OS:SizingPeriod:DesignDay,
  {2eddf244-7727-4ee1-83c4-454785e943dd}, ! Handle
  Salina Municipal Ap Ann Htg Wind 99.6% Condns WS=>MCDB, ! Name
  2.7,                                    ! Maximum Dry-Bulb Temperature {C}
  0,                                      ! Daily Dry-Bulb Temperature Range {deltaC}
  2.7,                                    ! Humidity Indicating Conditions at Maximum Dry-Bulb {BasedOnField A3}
  96785,                                  ! Barometric Pressure {Pa}
  13.8,                                   ! Wind Speed {m/s}
  350,                                    ! Wind Direction {deg}
  0,                                      ! Sky Clearness
  0,                                      ! Rain Indicator
  0,                                      ! Snow Indicator
  21,                                     ! Day of Month
  1,                                      ! Month
  WinterDesignDay,                        ! Day Type
  0,                                      ! Daylight Saving Time Indicator
  Wetbulb,                                ! Humidity Indicating Type
  ,                                       ! Humidity Indicating Day Schedule Name
  DefaultMultipliers,                     ! Dry-Bulb Temperature Range Modifier Type
  ,                                       ! Dry-Bulb Temperature Range Modifier Schedule Name
  ASHRAEClearSky;                         ! Solar Model Indicator

OS:ComponentData,
  {f1ea41f3-1cd2-40b2-99f7-c18a6f5015c6}, ! Handle
  Component Data 1,                       ! Name
  {6c26be4d-9bf4-4c89-b9e1-88161a1795e9}, ! UUID
  {5d17235f-1b52-4537-82a5-2700780a7cee}, ! Version UUID
  1366307575,                             ! Creation Timestamp
  1366307575,                             ! Version Timestamp
  {2eddf244-7727-4ee1-83c4-454785e943dd}; ! Name of Object 1

