
OS:Version,
  {0487a38f-1b12-4c6c-b0b4-9e035ac60b0b}, ! Handle
  0.9.3;                                  ! Version Identifier

OS:SizingPeriod:DesignDay,
  {00aa5322-cd76-4621-8271-d33eaf18aedf}, ! Handle
  Quantico Mcas Ann Clg 2% Condns DB=>MWB, ! Name
  31.2,                                   ! Maximum Dry-Bulb Temperature {C}
  9.5,                                    ! Daily Dry-Bulb Temperature Range {deltaC}
  23.7,                                   ! Humidity Indicating Conditions at Maximum Dry-Bulb {BasedOnField A3}
  101277,                                 ! Barometric Pressure {Pa}
  2.6,                                    ! Wind Speed {m/s}
  170,                                    ! Wind Direction {deg}
  0,                                      ! Sky Clearness
  0,                                      ! Rain Indicator
  0,                                      ! Snow Indicator
  21,                                     ! Day of Month
  7,                                      ! Month
  SummerDesignDay,                        ! Day Type
  0,                                      ! Daylight Saving Time Indicator
  Wetbulb,                                ! Humidity Indicating Type
  ,                                       ! Humidity Indicating Day Schedule Name
  DefaultMultipliers,                     ! Dry-Bulb Temperature Range Modifier Type
  ,                                       ! Dry-Bulb Temperature Range Modifier Schedule Name
  ASHRAETau,                              ! Solar Model Indicator
  ,                                       ! Beam Solar Day Schedule Name
  ,                                       ! Diffuse Solar Day Schedule Name
  0.574,                                  ! ASHRAE Taub {dimensionless}
  1.726;                                  ! ASHRAE Taud {dimensionless}

OS:ComponentData,
  {f45b0f08-972c-43e8-8f7d-b557b8a7b690}, ! Handle
  Component Data 1,                       ! Name
  {4815bd61-1b54-4824-af66-51c3a6031cae}, ! UUID
  {5fc953b9-e286-483c-b761-7f959c3ee3d3}, ! Version UUID
  1366311158,                             ! Creation Timestamp
  1366311158,                             ! Version Timestamp
  {00aa5322-cd76-4621-8271-d33eaf18aedf}; ! Name of Object 1

