
OS:Version,
  {fca72788-35b8-43c7-830b-2ea100e68a54}, ! Handle
  0.9.3;                                  ! Version Identifier

OS:SizingPeriod:DesignDay,
  {db8e9af5-0260-454b-92bf-db02618d4e52}, ! Handle
  Monticello Awos Ann Htg Wind 99% Condns WS=>MCDB, ! Name
  -8.2,                                   ! Maximum Dry-Bulb Temperature {C}
  0,                                      ! Daily Dry-Bulb Temperature Range {deltaC}
  -8.2,                                   ! Humidity Indicating Conditions at Maximum Dry-Bulb {BasedOnField A3}
  96288,                                  ! Barometric Pressure {Pa}
  11,                                     ! Wind Speed {m/s}
  280,                                    ! Wind Direction {deg}
  0,                                      ! Sky Clearness
  0,                                      ! Rain Indicator
  0,                                      ! Snow Indicator
  21,                                     ! Day of Month
  1,                                      ! Month
  WinterDesignDay,                        ! Day Type
  0,                                      ! Daylight Saving Time Indicator
  Wetbulb,                                ! Humidity Indicating Type
  ,                                       ! Humidity Indicating Day Schedule Name
  DefaultMultipliers,                     ! Dry-Bulb Temperature Range Modifier Type
  ,                                       ! Dry-Bulb Temperature Range Modifier Schedule Name
  ASHRAEClearSky;                         ! Solar Model Indicator

OS:ComponentData,
  {ffb754e6-ae38-47f5-a933-a6f16bc30073}, ! Handle
  Component Data 1,                       ! Name
  {9c9b4d0d-7a1b-4007-b55c-8bdeda0cc7e7}, ! UUID
  {228ae553-5e9c-44ec-9291-2be63a8f4083}, ! Version UUID
  1366309658,                             ! Creation Timestamp
  1366309658,                             ! Version Timestamp
  {db8e9af5-0260-454b-92bf-db02618d4e52}; ! Name of Object 1

