
OS:Version,
  {08855e5d-7f05-4e2f-b301-391eb82c8fd8}, ! Handle
  0.9.3;                                  ! Version Identifier

OS:SizingPeriod:DesignDay,
  {f4d072df-e8ef-4912-8c73-effbeef74b1e}, ! Handle
  Orlando Intl Arpt Ann Clg 2% Condns DB=>MWB, ! Name
  32.8,                                   ! Maximum Dry-Bulb Temperature {C}
  9.4,                                    ! Daily Dry-Bulb Temperature Range {deltaC}
  24.5,                                   ! Humidity Indicating Conditions at Maximum Dry-Bulb {BasedOnField A3}
  100977,                                 ! Barometric Pressure {Pa}
  3.7,                                    ! Wind Speed {m/s}
  290,                                    ! Wind Direction {deg}
  0,                                      ! Sky Clearness
  0,                                      ! Rain Indicator
  0,                                      ! Snow Indicator
  21,                                     ! Day of Month
  7,                                      ! Month
  SummerDesignDay,                        ! Day Type
  0,                                      ! Daylight Saving Time Indicator
  Wetbulb,                                ! Humidity Indicating Type
  ,                                       ! Humidity Indicating Day Schedule Name
  DefaultMultipliers,                     ! Dry-Bulb Temperature Range Modifier Type
  ,                                       ! Dry-Bulb Temperature Range Modifier Schedule Name
  ASHRAETau,                              ! Solar Model Indicator
  ,                                       ! Beam Solar Day Schedule Name
  ,                                       ! Diffuse Solar Day Schedule Name
  0.514,                                  ! ASHRAE Taub {dimensionless}
  1.928;                                  ! ASHRAE Taud {dimensionless}

OS:ComponentData,
  {0a6633a2-fd13-4281-8aae-2fca26106942}, ! Handle
  Component Data 1,                       ! Name
  {ac62087b-a667-4d03-a6af-c42d648576f2}, ! UUID
  {8d576a7c-650d-4abe-8916-431f52063a9f}, ! Version UUID
  1366306895,                             ! Creation Timestamp
  1366306895,                             ! Version Timestamp
  {f4d072df-e8ef-4912-8c73-effbeef74b1e}; ! Name of Object 1

