
OS:Version,
  {88bdb008-a2f4-4614-ad36-4fe40d3d3fb7}, ! Handle
  0.9.3;                                  ! Version Identifier

OS:SizingPeriod:DesignDay,
  {bec6c226-a3bf-444b-935b-6630b9100aaa}, ! Handle
  Whiting Field Naas Ann Hum_n 99.6% Condns DP=>MCDB, ! Name
  1.1,                                    ! Maximum Dry-Bulb Temperature {C}
  0,                                      ! Daily Dry-Bulb Temperature Range {deltaC}
  -12.6,                                  ! Humidity Indicating Conditions at Maximum Dry-Bulb {BasedOnField A3}
  100678,                                 ! Barometric Pressure {Pa}
  3,                                      ! Wind Speed {m/s}
  0,                                      ! Wind Direction {deg}
  0,                                      ! Sky Clearness
  0,                                      ! Rain Indicator
  0,                                      ! Snow Indicator
  21,                                     ! Day of Month
  1,                                      ! Month
  WinterDesignDay,                        ! Day Type
  0,                                      ! Daylight Saving Time Indicator
  Dewpoint,                               ! Humidity Indicating Type
  ,                                       ! Humidity Indicating Day Schedule Name
  DefaultMultipliers,                     ! Dry-Bulb Temperature Range Modifier Type
  ,                                       ! Dry-Bulb Temperature Range Modifier Schedule Name
  ASHRAEClearSky;                         ! Solar Model Indicator

OS:ComponentData,
  {9ac94cc0-2502-4ede-adfd-4a25b9ca92d6}, ! Handle
  Component Data 1,                       ! Name
  {d3006c0e-0db1-4e4d-be9e-1698bdb4bf16}, ! UUID
  {e8c682c7-b53a-4099-b7f3-7e9e88508d17}, ! Version UUID
  1366306957,                             ! Creation Timestamp
  1366306957,                             ! Version Timestamp
  {bec6c226-a3bf-444b-935b-6630b9100aaa}; ! Name of Object 1

