
OS:Version,
  {4207accd-223f-4743-8891-9a776c80a782}, ! Handle
  0.9.3;                                  ! Version Identifier

OS:SizingPeriod:DesignDay,
  {11ee8f74-6ce5-480e-b158-50b02ada003b}, ! Handle
  Mccook Municipal Ann Clg .4% Condns DP=>MDB, ! Name
  29,                                     ! Maximum Dry-Bulb Temperature {C}
  14.8,                                   ! Daily Dry-Bulb Temperature Range {deltaC}
  22.3,                                   ! Humidity Indicating Conditions at Maximum Dry-Bulb {BasedOnField A3}
  92232,                                  ! Barometric Pressure {Pa}
  6.2,                                    ! Wind Speed {m/s}
  170,                                    ! Wind Direction {deg}
  0,                                      ! Sky Clearness
  0,                                      ! Rain Indicator
  0,                                      ! Snow Indicator
  21,                                     ! Day of Month
  7,                                      ! Month
  SummerDesignDay,                        ! Day Type
  0,                                      ! Daylight Saving Time Indicator
  Dewpoint,                               ! Humidity Indicating Type
  ,                                       ! Humidity Indicating Day Schedule Name
  DefaultMultipliers,                     ! Dry-Bulb Temperature Range Modifier Type
  ,                                       ! Dry-Bulb Temperature Range Modifier Schedule Name
  ASHRAETau,                              ! Solar Model Indicator
  ,                                       ! Beam Solar Day Schedule Name
  ,                                       ! Diffuse Solar Day Schedule Name
  0.422,                                  ! ASHRAE Taub {dimensionless}
  2.112;                                  ! ASHRAE Taud {dimensionless}

OS:ComponentData,
  {131e0bca-c179-41e0-bfe4-baf4297f9117}, ! Handle
  Component Data 1,                       ! Name
  {dd5cf0f1-2294-4903-9328-80072ca41ef1}, ! UUID
  {a8830975-6875-48bb-a57d-d4a66261f84d}, ! Version UUID
  1366309145,                             ! Creation Timestamp
  1366309145,                             ! Version Timestamp
  {11ee8f74-6ce5-480e-b158-50b02ada003b}; ! Name of Object 1

