
OS:Version,
  {01d0ba26-6792-43d2-afc1-11da8181ebc3}, ! Handle
  0.9.3;                                  ! Version Identifier

OS:SizingPeriod:DesignDay,
  {f12b9d1e-def3-4b21-a67d-eb2cb6d854d2}, ! Handle
  Santa Maria Public Arpt Ann Clg .4% Condns DP=>MDB, ! Name
  20.7,                                   ! Maximum Dry-Bulb Temperature {C}
  10.2,                                   ! Daily Dry-Bulb Temperature Range {deltaC}
  16.4,                                   ! Humidity Indicating Conditions at Maximum Dry-Bulb {BasedOnField A3}
  100403,                                 ! Barometric Pressure {Pa}
  4.6,                                    ! Wind Speed {m/s}
  300,                                    ! Wind Direction {deg}
  0,                                      ! Sky Clearness
  0,                                      ! Rain Indicator
  0,                                      ! Snow Indicator
  21,                                     ! Day of Month
  8,                                      ! Month
  SummerDesignDay,                        ! Day Type
  0,                                      ! Daylight Saving Time Indicator
  Dewpoint,                               ! Humidity Indicating Type
  ,                                       ! Humidity Indicating Day Schedule Name
  DefaultMultipliers,                     ! Dry-Bulb Temperature Range Modifier Type
  ,                                       ! Dry-Bulb Temperature Range Modifier Schedule Name
  ASHRAETau,                              ! Solar Model Indicator
  ,                                       ! Beam Solar Day Schedule Name
  ,                                       ! Diffuse Solar Day Schedule Name
  0.371,                                  ! ASHRAE Taub {dimensionless}
  2.414;                                  ! ASHRAE Taud {dimensionless}

OS:ComponentData,
  {4919124b-7a83-4402-b2eb-77a0f960dd01}, ! Handle
  Component Data 1,                       ! Name
  {ba7292db-523d-4a89-9730-d0da51acd611}, ! UUID
  {7e57873a-17e7-423a-8e4e-eb6d9f100bf7}, ! Version UUID
  1366306616,                             ! Creation Timestamp
  1366306616,                             ! Version Timestamp
  {f12b9d1e-def3-4b21-a67d-eb2cb6d854d2}; ! Name of Object 1

