
OS:Version,
  {347087f2-a7a7-4085-ae46-2060c227da67}, ! Handle
  0.9.3;                                  ! Version Identifier

OS:SizingPeriod:DesignDay,
  {df13343b-3e50-4ccb-bacf-4d86521ed32e}, ! Handle
  San Diego/Int'l Airpor Ann Htg Wind 99% Condns WS=>MCDB, ! Name
  15.4,                                   ! Maximum Dry-Bulb Temperature {C}
  0,                                      ! Daily Dry-Bulb Temperature Range {deltaC}
  15.4,                                   ! Humidity Indicating Conditions at Maximum Dry-Bulb {BasedOnField A3}
  101217,                                 ! Barometric Pressure {Pa}
  8.4,                                    ! Wind Speed {m/s}
  340,                                    ! Wind Direction {deg}
  0,                                      ! Sky Clearness
  0,                                      ! Rain Indicator
  0,                                      ! Snow Indicator
  21,                                     ! Day of Month
  12,                                     ! Month
  WinterDesignDay,                        ! Day Type
  0,                                      ! Daylight Saving Time Indicator
  Wetbulb,                                ! Humidity Indicating Type
  ,                                       ! Humidity Indicating Day Schedule Name
  DefaultMultipliers,                     ! Dry-Bulb Temperature Range Modifier Type
  ,                                       ! Dry-Bulb Temperature Range Modifier Schedule Name
  ASHRAEClearSky;                         ! Solar Model Indicator

OS:ComponentData,
  {be7f1527-4625-4675-90ec-64c937ed629d}, ! Handle
  Component Data 1,                       ! Name
  {8727d927-0225-44ac-baee-2eb6ed9e2d10}, ! UUID
  {c0b965b9-22b5-4e53-b24d-c084a0da2a63}, ! Version UUID
  1366306572,                             ! Creation Timestamp
  1366306572,                             ! Version Timestamp
  {df13343b-3e50-4ccb-bacf-4d86521ed32e}; ! Name of Object 1

