
OS:Version,
  {9580292a-53e2-4630-a4fc-ce921ca85b1b}, ! Handle
  0.9.3;                                  ! Version Identifier

OS:SizingPeriod:DesignDay,
  {94412757-7955-4eb3-8b61-f086c1c5f95b}, ! Handle
  New Orleans/Lakefront Ann Clg .4% Condns DP=>MDB, ! Name
  29.1,                                   ! Maximum Dry-Bulb Temperature {C}
  8.5,                                    ! Daily Dry-Bulb Temperature Range {deltaC}
  25.9,                                   ! Humidity Indicating Conditions at Maximum Dry-Bulb {BasedOnField A3}
  101289,                                 ! Barometric Pressure {Pa}
  3.4,                                    ! Wind Speed {m/s}
  0,                                      ! Wind Direction {deg}
  0,                                      ! Sky Clearness
  0,                                      ! Rain Indicator
  0,                                      ! Snow Indicator
  21,                                     ! Day of Month
  8,                                      ! Month
  SummerDesignDay,                        ! Day Type
  0,                                      ! Daylight Saving Time Indicator
  Dewpoint,                               ! Humidity Indicating Type
  ,                                       ! Humidity Indicating Day Schedule Name
  DefaultMultipliers,                     ! Dry-Bulb Temperature Range Modifier Type
  ,                                       ! Dry-Bulb Temperature Range Modifier Schedule Name
  ASHRAETau,                              ! Solar Model Indicator
  ,                                       ! Beam Solar Day Schedule Name
  ,                                       ! Diffuse Solar Day Schedule Name
  0.553,                                  ! ASHRAE Taub {dimensionless}
  1.821;                                  ! ASHRAE Taud {dimensionless}

OS:ComponentData,
  {83161709-8ade-4d31-85ef-de42e4c8628d}, ! Handle
  Component Data 1,                       ! Name
  {a4c6bd6a-9494-4598-a19f-1d54547d0a06}, ! UUID
  {a822013d-8e8d-4f52-8402-e881cfe08e10}, ! Version UUID
  1366307751,                             ! Creation Timestamp
  1366307751,                             ! Version Timestamp
  {94412757-7955-4eb3-8b61-f086c1c5f95b}; ! Name of Object 1

