
OS:Version,
  {d3f3c735-4b14-4c75-8165-468c965b65bc}, ! Handle
  0.9.3;                                  ! Version Identifier

OS:SizingPeriod:DesignDay,
  {a28d2113-1834-4fcc-bcaf-940631e91b71}, ! Handle
  WICHITA Ann Htg 99% Condns DB,          ! Name
  -11.9,                                  ! Maximum Dry-Bulb Temperature {C}
  0,                                      ! Daily Dry-Bulb Temperature Range {deltaC}
  -11.9,                                  ! Humidity Indicating Conditions at Maximum Dry-Bulb {BasedOnField A3}
  96519,                                  ! Barometric Pressure {Pa}
  5.2,                                    ! Wind Speed {m/s}
  0,                                      ! Wind Direction {deg}
  0,                                      ! Sky Clearness
  0,                                      ! Rain Indicator
  0,                                      ! Snow Indicator
  21,                                     ! Day of Month
  1,                                      ! Month
  WinterDesignDay,                        ! Day Type
  0,                                      ! Daylight Saving Time Indicator
  Wetbulb,                                ! Humidity Indicating Type
  ,                                       ! Humidity Indicating Day Schedule Name
  DefaultMultipliers,                     ! Dry-Bulb Temperature Range Modifier Type
  ,                                       ! Dry-Bulb Temperature Range Modifier Schedule Name
  ASHRAEClearSky;                         ! Solar Model Indicator

OS:ComponentData,
  {a2afc654-0863-4f2b-b28d-201dc8b88967}, ! Handle
  Component Data 1,                       ! Name
  {e47b6721-f21c-488e-a21b-5dbd5804df4d}, ! UUID
  {ea317fce-2574-40aa-8394-0afa29506ad6}, ! Version UUID
  1366307606,                             ! Creation Timestamp
  1366307606,                             ! Version Timestamp
  {a28d2113-1834-4fcc-bcaf-940631e91b71}; ! Name of Object 1

