
OS:Version,
  {ab430087-0705-4bc1-b6be-b51453ef480a}, ! Handle
  0.9.3;                                  ! Version Identifier

OS:SizingPeriod:DesignDay,
  {2395c117-c67b-4c18-94c0-0c9a3f0bd901}, ! Handle
  San Angelo Mathis Field Ann Hum_n 99% Condns DP=>MCDB, ! Name
  3.7,                                    ! Maximum Dry-Bulb Temperature {C}
  0,                                      ! Daily Dry-Bulb Temperature Range {deltaC}
  -11.9,                                  ! Humidity Indicating Conditions at Maximum Dry-Bulb {BasedOnField A3}
  94503,                                  ! Barometric Pressure {Pa}
  4.1,                                    ! Wind Speed {m/s}
  40,                                     ! Wind Direction {deg}
  0,                                      ! Sky Clearness
  0,                                      ! Rain Indicator
  0,                                      ! Snow Indicator
  21,                                     ! Day of Month
  1,                                      ! Month
  WinterDesignDay,                        ! Day Type
  0,                                      ! Daylight Saving Time Indicator
  Dewpoint,                               ! Humidity Indicating Type
  ,                                       ! Humidity Indicating Day Schedule Name
  DefaultMultipliers,                     ! Dry-Bulb Temperature Range Modifier Type
  ,                                       ! Dry-Bulb Temperature Range Modifier Schedule Name
  ASHRAEClearSky;                         ! Solar Model Indicator

OS:ComponentData,
  {61fdfe50-85c7-4f94-8508-dcf15253ac4e}, ! Handle
  Component Data 1,                       ! Name
  {131e6f38-4010-4db6-93a8-26e93c1cd422}, ! UUID
  {d37c3fa8-5cce-456f-a48c-be8f029f38f1}, ! Version UUID
  1366310873,                             ! Creation Timestamp
  1366310873,                             ! Version Timestamp
  {2395c117-c67b-4c18-94c0-0c9a3f0bd901}; ! Name of Object 1

