
OS:Version,
  {7e61fc39-1480-47eb-826c-e8343284d1d4}, ! Handle
  0.9.3;                                  ! Version Identifier

OS:SizingPeriod:DesignDay,
  {1418d988-25a3-4380-a440-864355f528a9}, ! Handle
  Pease Intl Tradepor Ann Clg .4% Condns DB=>MWB, ! Name
  31.8,                                   ! Maximum Dry-Bulb Temperature {C}
  10.1,                                   ! Daily Dry-Bulb Temperature Range {deltaC}
  22.6,                                   ! Humidity Indicating Conditions at Maximum Dry-Bulb {BasedOnField A3}
  100953,                                 ! Barometric Pressure {Pa}
  4.1,                                    ! Wind Speed {m/s}
  260,                                    ! Wind Direction {deg}
  0,                                      ! Sky Clearness
  0,                                      ! Rain Indicator
  0,                                      ! Snow Indicator
  21,                                     ! Day of Month
  7,                                      ! Month
  SummerDesignDay,                        ! Day Type
  0,                                      ! Daylight Saving Time Indicator
  Wetbulb,                                ! Humidity Indicating Type
  ,                                       ! Humidity Indicating Day Schedule Name
  DefaultMultipliers,                     ! Dry-Bulb Temperature Range Modifier Type
  ,                                       ! Dry-Bulb Temperature Range Modifier Schedule Name
  ASHRAETau,                              ! Solar Model Indicator
  ,                                       ! Beam Solar Day Schedule Name
  ,                                       ! Diffuse Solar Day Schedule Name
  0.477,                                  ! ASHRAE Taub {dimensionless}
  1.97;                                   ! ASHRAE Taud {dimensionless}

OS:ComponentData,
  {6d801e99-698b-4c89-be44-a6a255c02516}, ! Handle
  Component Data 1,                       ! Name
  {361ff228-75cd-4736-898e-358da2299ed9}, ! UUID
  {cf466306-fa58-45fb-abcd-67f31fc43c38}, ! Version UUID
  1366309277,                             ! Creation Timestamp
  1366309277,                             ! Version Timestamp
  {1418d988-25a3-4380-a440-864355f528a9}; ! Name of Object 1

