
OS:Version,
  {7cbcbc71-b62f-4c03-ae94-761b81498af4}, ! Handle
  0.9.3;                                  ! Version Identifier

OS:SizingPeriod:DesignDay,
  {247b74ca-4b19-4adf-913d-3e2b5a912036}, ! Handle
  Owatonna  Awos Ann Hum_n 99.6% Condns DP=>MCDB, ! Name
  -24.5,                                  ! Maximum Dry-Bulb Temperature {C}
  0,                                      ! Daily Dry-Bulb Temperature Range {deltaC}
  -29.9,                                  ! Humidity Indicating Conditions at Maximum Dry-Bulb {BasedOnField A3}
  97190,                                  ! Barometric Pressure {Pa}
  3.1,                                    ! Wind Speed {m/s}
  290,                                    ! Wind Direction {deg}
  0,                                      ! Sky Clearness
  0,                                      ! Rain Indicator
  0,                                      ! Snow Indicator
  21,                                     ! Day of Month
  1,                                      ! Month
  WinterDesignDay,                        ! Day Type
  0,                                      ! Daylight Saving Time Indicator
  Dewpoint,                               ! Humidity Indicating Type
  ,                                       ! Humidity Indicating Day Schedule Name
  DefaultMultipliers,                     ! Dry-Bulb Temperature Range Modifier Type
  ,                                       ! Dry-Bulb Temperature Range Modifier Schedule Name
  ASHRAEClearSky;                         ! Solar Model Indicator

OS:ComponentData,
  {5e52dfff-7d91-43c1-bc8f-f5ab625a79b3}, ! Handle
  Component Data 1,                       ! Name
  {ec84145d-2f35-404f-84ff-15531642efb5}, ! UUID
  {c0b3c9b3-852a-43ec-98f8-33a5070b4d4c}, ! Version UUID
  1366308352,                             ! Creation Timestamp
  1366308352,                             ! Version Timestamp
  {247b74ca-4b19-4adf-913d-3e2b5a912036}; ! Name of Object 1

