
OS:Version,
  {caaed27a-a5a6-48ea-8bf8-03793d44f0ff}, ! Handle
  0.9.3;                                  ! Version Identifier

OS:SizingPeriod:DesignDay,
  {3c79b669-59eb-4230-a7d0-0cc12fdb263a}, ! Handle
  Tampa International Ap Ann Clg 2% Condns Enth=>MDB, ! Name
  30.5,                                   ! Maximum Dry-Bulb Temperature {C}
  7.9,                                    ! Daily Dry-Bulb Temperature Range {deltaC}
  80900,                                  ! Humidity Indicating Conditions at Maximum Dry-Bulb {BasedOnField A3}
  101253,                                 ! Barometric Pressure {Pa}
  3.9,                                    ! Wind Speed {m/s}
  260,                                    ! Wind Direction {deg}
  0,                                      ! Sky Clearness
  0,                                      ! Rain Indicator
  0,                                      ! Snow Indicator
  21,                                     ! Day of Month
  8,                                      ! Month
  SummerDesignDay,                        ! Day Type
  0,                                      ! Daylight Saving Time Indicator
  Enthalpy,                               ! Humidity Indicating Type
  ,                                       ! Humidity Indicating Day Schedule Name
  DefaultMultipliers,                     ! Dry-Bulb Temperature Range Modifier Type
  ,                                       ! Dry-Bulb Temperature Range Modifier Schedule Name
  ASHRAETau,                              ! Solar Model Indicator
  ,                                       ! Beam Solar Day Schedule Name
  ,                                       ! Diffuse Solar Day Schedule Name
  0.493,                                  ! ASHRAE Taub {dimensionless}
  2.01;                                   ! ASHRAE Taud {dimensionless}

OS:ComponentData,
  {7d16e711-ec8d-40bf-8868-9150fd55bd04}, ! Handle
  Component Data 1,                       ! Name
  {640f3af7-4a31-461d-ba1b-a8b428ab0d6f}, ! UUID
  {66df8559-772c-4eca-aaef-a9071e2668bf}, ! Version UUID
  1366306937,                             ! Creation Timestamp
  1366306937,                             ! Version Timestamp
  {3c79b669-59eb-4230-a7d0-0cc12fdb263a}; ! Name of Object 1

