
OS:Version,
  {1d4cb4d4-052a-4311-8a73-7c4cff274f64}, ! Handle
  0.9.3;                                  ! Version Identifier

OS:SizingPeriod:DesignDay,
  {c03c7faa-c8cf-4257-a026-8603f8881e75}, ! Handle
  Storm Lake Ann Clg 1% Condns DB=>MWB,   ! Name
  32.3,                                   ! Maximum Dry-Bulb Temperature {C}
  10.5,                                   ! Daily Dry-Bulb Temperature Range {deltaC}
  23.4,                                   ! Humidity Indicating Conditions at Maximum Dry-Bulb {BasedOnField A3}
  95989,                                  ! Barometric Pressure {Pa}
  5.9,                                    ! Wind Speed {m/s}
  200,                                    ! Wind Direction {deg}
  0,                                      ! Sky Clearness
  0,                                      ! Rain Indicator
  0,                                      ! Snow Indicator
  21,                                     ! Day of Month
  7,                                      ! Month
  SummerDesignDay,                        ! Day Type
  0,                                      ! Daylight Saving Time Indicator
  Wetbulb,                                ! Humidity Indicating Type
  ,                                       ! Humidity Indicating Day Schedule Name
  DefaultMultipliers,                     ! Dry-Bulb Temperature Range Modifier Type
  ,                                       ! Dry-Bulb Temperature Range Modifier Schedule Name
  ASHRAETau,                              ! Solar Model Indicator
  ,                                       ! Beam Solar Day Schedule Name
  ,                                       ! Diffuse Solar Day Schedule Name
  0.399,                                  ! ASHRAE Taub {dimensionless}
  2.249;                                  ! ASHRAE Taud {dimensionless}

OS:ComponentData,
  {a1463dad-60e5-44de-971e-31c405ef0cc9}, ! Handle
  Component Data 1,                       ! Name
  {881f8d9f-da9b-4a9f-bde1-345cef4a142d}, ! UUID
  {5aa132f6-47f8-4aba-93c6-3efbe4b58601}, ! Version UUID
  1366307245,                             ! Creation Timestamp
  1366307245,                             ! Version Timestamp
  {c03c7faa-c8cf-4257-a026-8603f8881e75}; ! Name of Object 1

