
OS:Version,
  {b67502bf-3a31-4d73-93c7-1c07300e2f06}, ! Handle
  0.9.3;                                  ! Version Identifier

OS:SizingPeriod:DesignDay,
  {bf2fcee3-a823-4662-8ab3-2f73cdf4e2b8}, ! Handle
  New Orleans Alvin Callender F Ann Clg 2% Condns DP=>MDB, ! Name
  28.4,                                   ! Maximum Dry-Bulb Temperature {C}
  8.8,                                    ! Daily Dry-Bulb Temperature Range {deltaC}
  25.7,                                   ! Humidity Indicating Conditions at Maximum Dry-Bulb {BasedOnField A3}
  101301,                                 ! Barometric Pressure {Pa}
  2.3,                                    ! Wind Speed {m/s}
  90,                                     ! Wind Direction {deg}
  0,                                      ! Sky Clearness
  0,                                      ! Rain Indicator
  0,                                      ! Snow Indicator
  21,                                     ! Day of Month
  7,                                      ! Month
  SummerDesignDay,                        ! Day Type
  0,                                      ! Daylight Saving Time Indicator
  Dewpoint,                               ! Humidity Indicating Type
  ,                                       ! Humidity Indicating Day Schedule Name
  DefaultMultipliers,                     ! Dry-Bulb Temperature Range Modifier Type
  ,                                       ! Dry-Bulb Temperature Range Modifier Schedule Name
  ASHRAETau,                              ! Solar Model Indicator
  ,                                       ! Beam Solar Day Schedule Name
  ,                                       ! Diffuse Solar Day Schedule Name
  0.565,                                  ! ASHRAE Taub {dimensionless}
  1.798;                                  ! ASHRAE Taud {dimensionless}

OS:ComponentData,
  {a94a8643-cd7a-46ad-ac2a-2bdaceb91cba}, ! Handle
  Component Data 1,                       ! Name
  {33a1b201-891c-4792-a7e6-b9bd8b92f96a}, ! UUID
  {d4fe5450-c5cd-42b2-96b0-92a75d1d830d}, ! Version UUID
  1366307741,                             ! Creation Timestamp
  1366307741,                             ! Version Timestamp
  {bf2fcee3-a823-4662-8ab3-2f73cdf4e2b8}; ! Name of Object 1

