
OS:Version,
  {153e13ab-4552-4ce7-b9ba-2963baca2c42}, ! Handle
  0.9.3;                                  ! Version Identifier

OS:SizingPeriod:DesignDay,
  {6cfb12f4-a6f8-4568-a521-23a2b7a27d0e}, ! Handle
  San Angelo Mathis Field Ann Clg .4% Condns DB=>MWB, ! Name
  37.9,                                   ! Maximum Dry-Bulb Temperature {C}
  12.8,                                   ! Daily Dry-Bulb Temperature Range {deltaC}
  21.1,                                   ! Humidity Indicating Conditions at Maximum Dry-Bulb {BasedOnField A3}
  94503,                                  ! Barometric Pressure {Pa}
  4.9,                                    ! Wind Speed {m/s}
  170,                                    ! Wind Direction {deg}
  0,                                      ! Sky Clearness
  0,                                      ! Rain Indicator
  0,                                      ! Snow Indicator
  21,                                     ! Day of Month
  7,                                      ! Month
  SummerDesignDay,                        ! Day Type
  0,                                      ! Daylight Saving Time Indicator
  Wetbulb,                                ! Humidity Indicating Type
  ,                                       ! Humidity Indicating Day Schedule Name
  DefaultMultipliers,                     ! Dry-Bulb Temperature Range Modifier Type
  ,                                       ! Dry-Bulb Temperature Range Modifier Schedule Name
  ASHRAETau,                              ! Solar Model Indicator
  ,                                       ! Beam Solar Day Schedule Name
  ,                                       ! Diffuse Solar Day Schedule Name
  0.454,                                  ! ASHRAE Taub {dimensionless}
  2.053;                                  ! ASHRAE Taud {dimensionless}

OS:ComponentData,
  {1e70bde0-e575-4db9-baad-68e18aadfb2a}, ! Handle
  Component Data 1,                       ! Name
  {b7c13bd9-1e84-4f1e-bd27-b08a9994843b}, ! UUID
  {2dcb0840-31bb-40f3-889d-e402e783b07b}, ! Version UUID
  1366310873,                             ! Creation Timestamp
  1366310873,                             ! Version Timestamp
  {6cfb12f4-a6f8-4568-a521-23a2b7a27d0e}; ! Name of Object 1

