
OS:Version,
  {96e69675-f367-4044-92f0-aef5613c2bf7}, ! Handle
  0.9.3;                                  ! Version Identifier

OS:SizingPeriod:DesignDay,
  {b266e044-ba7d-4341-9cea-01647160893c}, ! Handle
  Pierre Municipal Ap Ann Clg 1% Condns DB=>MWB, ! Name
  35,                                     ! Maximum Dry-Bulb Temperature {C}
  14.3,                                   ! Daily Dry-Bulb Temperature Range {deltaC}
  21.4,                                   ! Humidity Indicating Conditions at Maximum Dry-Bulb {BasedOnField A3}
  95141,                                  ! Barometric Pressure {Pa}
  6.2,                                    ! Wind Speed {m/s}
  170,                                    ! Wind Direction {deg}
  0,                                      ! Sky Clearness
  0,                                      ! Rain Indicator
  0,                                      ! Snow Indicator
  21,                                     ! Day of Month
  7,                                      ! Month
  SummerDesignDay,                        ! Day Type
  0,                                      ! Daylight Saving Time Indicator
  Wetbulb,                                ! Humidity Indicating Type
  ,                                       ! Humidity Indicating Day Schedule Name
  DefaultMultipliers,                     ! Dry-Bulb Temperature Range Modifier Type
  ,                                       ! Dry-Bulb Temperature Range Modifier Schedule Name
  ASHRAETau,                              ! Solar Model Indicator
  ,                                       ! Beam Solar Day Schedule Name
  ,                                       ! Diffuse Solar Day Schedule Name
  0.427,                                  ! ASHRAE Taub {dimensionless}
  2.103;                                  ! ASHRAE Taud {dimensionless}

OS:ComponentData,
  {568660da-19b0-4419-96df-7d2609be8e24}, ! Handle
  Component Data 1,                       ! Name
  {f17ff261-d7f8-46ed-a0df-26d9627f9096}, ! UUID
  {072f7f6b-d776-444f-b148-bb7722d80da1}, ! Version UUID
  1366310435,                             ! Creation Timestamp
  1366310435,                             ! Version Timestamp
  {b266e044-ba7d-4341-9cea-01647160893c}; ! Name of Object 1

