
OS:Version,
  {cf82c27d-fba0-40d7-85df-92c0c9fd5e81}, ! Handle
  0.9.3;                                  ! Version Identifier

OS:SizingPeriod:DesignDay,
  {339c7d49-a1e2-4e06-bf9c-d83c73571063}, ! Handle
  Quincy Muni Baldwin Fld Ann Htg 99% Condns DB, ! Name
  -15.9,                                  ! Maximum Dry-Bulb Temperature {C}
  0,                                      ! Daily Dry-Bulb Temperature Range {deltaC}
  -15.9,                                  ! Humidity Indicating Conditions at Maximum Dry-Bulb {BasedOnField A3}
  98557,                                  ! Barometric Pressure {Pa}
  4.9,                                    ! Wind Speed {m/s}
  280,                                    ! Wind Direction {deg}
  0,                                      ! Sky Clearness
  0,                                      ! Rain Indicator
  0,                                      ! Snow Indicator
  21,                                     ! Day of Month
  1,                                      ! Month
  WinterDesignDay,                        ! Day Type
  0,                                      ! Daylight Saving Time Indicator
  Wetbulb,                                ! Humidity Indicating Type
  ,                                       ! Humidity Indicating Day Schedule Name
  DefaultMultipliers,                     ! Dry-Bulb Temperature Range Modifier Type
  ,                                       ! Dry-Bulb Temperature Range Modifier Schedule Name
  ASHRAEClearSky;                         ! Solar Model Indicator

OS:ComponentData,
  {0064a3bf-bda7-45ed-a4ec-5d8b833980ef}, ! Handle
  Component Data 1,                       ! Name
  {024bd756-db73-495b-8505-9109463d0678}, ! UUID
  {e0c23e12-7b5f-473a-ae89-4cd20c10b76b}, ! Version UUID
  1366307387,                             ! Creation Timestamp
  1366307387,                             ! Version Timestamp
  {339c7d49-a1e2-4e06-bf9c-d83c73571063}; ! Name of Object 1

