
OS:Version,
  {8672dbb9-34eb-4702-8228-888578beeada}, ! Handle
  0.9.3;                                  ! Version Identifier

OS:SizingPeriod:DesignDay,
  {901dedd6-3566-4544-8d68-aeffb1fffdd2}, ! Handle
  Shemya Afb Ann Htg Wind 99% Condns WS=>MCDB, ! Name
  0.3,                                    ! Maximum Dry-Bulb Temperature {C}
  0,                                      ! Daily Dry-Bulb Temperature Range {deltaC}
  0.3,                                    ! Humidity Indicating Conditions at Maximum Dry-Bulb {BasedOnField A3}
  100953,                                 ! Barometric Pressure {Pa}
  21.7,                                   ! Wind Speed {m/s}
  290,                                    ! Wind Direction {deg}
  0,                                      ! Sky Clearness
  0,                                      ! Rain Indicator
  0,                                      ! Snow Indicator
  21,                                     ! Day of Month
  1,                                      ! Month
  WinterDesignDay,                        ! Day Type
  0,                                      ! Daylight Saving Time Indicator
  Wetbulb,                                ! Humidity Indicating Type
  ,                                       ! Humidity Indicating Day Schedule Name
  DefaultMultipliers,                     ! Dry-Bulb Temperature Range Modifier Type
  ,                                       ! Dry-Bulb Temperature Range Modifier Schedule Name
  ASHRAEClearSky;                         ! Solar Model Indicator

OS:ComponentData,
  {686355db-6df8-44b5-bccb-44e0278650e4}, ! Handle
  Component Data 1,                       ! Name
  {b1bb9872-7660-4fd9-85b5-956b41dd6755}, ! UUID
  {172a7aef-2080-4a46-9dbc-9ecedf1c0013}, ! Version UUID
  1366305542,                             ! Creation Timestamp
  1366305542,                             ! Version Timestamp
  {901dedd6-3566-4544-8d68-aeffb1fffdd2}; ! Name of Object 1

