
OS:Version,
  {a6112633-b808-4046-b24a-be0e2567b0c6}, ! Handle
  0.9.3;                                  ! Version Identifier

OS:SizingPeriod:DesignDay,
  {b9f38e14-9681-484f-b239-dfd2433889e8}, ! Handle
  Tucson International Ap Ann Htg Wind 99% Condns WS=>MCDB, ! Name
  14.7,                                   ! Maximum Dry-Bulb Temperature {C}
  0,                                      ! Daily Dry-Bulb Temperature Range {deltaC}
  14.7,                                   ! Humidity Indicating Conditions at Maximum Dry-Bulb {BasedOnField A3}
  92332,                                  ! Barometric Pressure {Pa}
  9.8,                                    ! Wind Speed {m/s}
  140,                                    ! Wind Direction {deg}
  0,                                      ! Sky Clearness
  0,                                      ! Rain Indicator
  0,                                      ! Snow Indicator
  21,                                     ! Day of Month
  12,                                     ! Month
  WinterDesignDay,                        ! Day Type
  0,                                      ! Daylight Saving Time Indicator
  Wetbulb,                                ! Humidity Indicating Type
  ,                                       ! Humidity Indicating Day Schedule Name
  DefaultMultipliers,                     ! Dry-Bulb Temperature Range Modifier Type
  ,                                       ! Dry-Bulb Temperature Range Modifier Schedule Name
  ASHRAEClearSky;                         ! Solar Model Indicator

OS:ComponentData,
  {63b2f03b-da94-4f99-9792-2804470c32a5}, ! Handle
  Component Data 1,                       ! Name
  {f0358ce4-63c9-4c50-b63b-e8ac122f7b6c}, ! UUID
  {2f8ebde1-6c07-4b37-87f5-5032c29d3a6e}, ! Version UUID
  1366306325,                             ! Creation Timestamp
  1366306325,                             ! Version Timestamp
  {b9f38e14-9681-484f-b239-dfd2433889e8}; ! Name of Object 1

