
OS:Version,
  {824bfb90-d6fb-40a3-9270-3a13f697cb5d}, ! Handle
  0.9.3;                                  ! Version Identifier

OS:SizingPeriod:DesignDay,
  {092766b1-b24a-43cc-9b6b-494e27da6941}, ! Handle
  Yuma Mcas Ann Clg 1% Condns Enth=>MDB,  ! Name
  35.4,                                   ! Maximum Dry-Bulb Temperature {C}
  13.1,                                   ! Daily Dry-Bulb Temperature Range {deltaC}
  80000,                                  ! Humidity Indicating Conditions at Maximum Dry-Bulb {BasedOnField A3}
  100547,                                 ! Barometric Pressure {Pa}
  3.4,                                    ! Wind Speed {m/s}
  180,                                    ! Wind Direction {deg}
  0,                                      ! Sky Clearness
  0,                                      ! Rain Indicator
  0,                                      ! Snow Indicator
  21,                                     ! Day of Month
  7,                                      ! Month
  SummerDesignDay,                        ! Day Type
  0,                                      ! Daylight Saving Time Indicator
  Enthalpy,                               ! Humidity Indicating Type
  ,                                       ! Humidity Indicating Day Schedule Name
  DefaultMultipliers,                     ! Dry-Bulb Temperature Range Modifier Type
  ,                                       ! Dry-Bulb Temperature Range Modifier Schedule Name
  ASHRAETau,                              ! Solar Model Indicator
  ,                                       ! Beam Solar Day Schedule Name
  ,                                       ! Diffuse Solar Day Schedule Name
  0.533,                                  ! ASHRAE Taub {dimensionless}
  1.765;                                  ! ASHRAE Taud {dimensionless}

OS:ComponentData,
  {608367e1-a45d-4f80-95c8-ad30e079feae}, ! Handle
  Component Data 1,                       ! Name
  {964478af-c35e-42df-9a7b-3c898d917db0}, ! UUID
  {4516da69-e56d-4234-8e0c-653b32c160c6}, ! Version UUID
  1366306342,                             ! Creation Timestamp
  1366306342,                             ! Version Timestamp
  {092766b1-b24a-43cc-9b6b-494e27da6941}; ! Name of Object 1

