
OS:Version,
  {2683fbf3-3368-4a4f-8993-6f9f40a09798}, ! Handle
  0.9.3;                                  ! Version Identifier

OS:SizingPeriod:DesignDay,
  {f3ffdc52-13cc-4534-a4fa-3658df286779}, ! Handle
  MISSOULA Ann Clg 1% Condns WB=>MDB,     ! Name
  28.3,                                   ! Maximum Dry-Bulb Temperature {C}
  17.5,                                   ! Daily Dry-Bulb Temperature Range {deltaC}
  17.6,                                   ! Humidity Indicating Conditions at Maximum Dry-Bulb {BasedOnField A3}
  90180,                                  ! Barometric Pressure {Pa}
  4.4,                                    ! Wind Speed {m/s}
  320,                                    ! Wind Direction {deg}
  0,                                      ! Sky Clearness
  0,                                      ! Rain Indicator
  0,                                      ! Snow Indicator
  21,                                     ! Day of Month
  7,                                      ! Month
  SummerDesignDay,                        ! Day Type
  0,                                      ! Daylight Saving Time Indicator
  Wetbulb,                                ! Humidity Indicating Type
  ,                                       ! Humidity Indicating Day Schedule Name
  DefaultMultipliers,                     ! Dry-Bulb Temperature Range Modifier Type
  ,                                       ! Dry-Bulb Temperature Range Modifier Schedule Name
  ASHRAETau,                              ! Solar Model Indicator
  ,                                       ! Beam Solar Day Schedule Name
  ,                                       ! Diffuse Solar Day Schedule Name
  0.357,                                  ! ASHRAE Taub {dimensionless}
  2.409;                                  ! ASHRAE Taud {dimensionless}

OS:ComponentData,
  {0ecffae8-7048-41a4-a8ef-218d09e016ba}, ! Handle
  Component Data 1,                       ! Name
  {df8e20d6-071b-47a3-af1c-57a367baf99e}, ! UUID
  {4e90b9e9-9179-458c-b534-6dbe4c38a603}, ! Version UUID
  1366308841,                             ! Creation Timestamp
  1366308841,                             ! Version Timestamp
  {f3ffdc52-13cc-4534-a4fa-3658df286779}; ! Name of Object 1

