
OS:Version,
  {41b4158a-e53e-4b08-ace4-64bb6a668978}, ! Handle
  0.9.3;                                  ! Version Identifier

OS:SizingPeriod:DesignDay,
  {4925fed9-a097-43e5-8338-0af6cf4e4571}, ! Handle
  MASON_CITY Ann Clg 1% Condns DP=>MDB,   ! Name
  27.5,                                   ! Maximum Dry-Bulb Temperature {C}
  11.5,                                   ! Daily Dry-Bulb Temperature Range {deltaC}
  23,                                     ! Humidity Indicating Conditions at Maximum Dry-Bulb {BasedOnField A3}
  96924,                                  ! Barometric Pressure {Pa}
  6.4,                                    ! Wind Speed {m/s}
  200,                                    ! Wind Direction {deg}
  0,                                      ! Sky Clearness
  0,                                      ! Rain Indicator
  0,                                      ! Snow Indicator
  21,                                     ! Day of Month
  7,                                      ! Month
  SummerDesignDay,                        ! Day Type
  0,                                      ! Daylight Saving Time Indicator
  Dewpoint,                               ! Humidity Indicating Type
  ,                                       ! Humidity Indicating Day Schedule Name
  DefaultMultipliers,                     ! Dry-Bulb Temperature Range Modifier Type
  ,                                       ! Dry-Bulb Temperature Range Modifier Schedule Name
  ASHRAETau,                              ! Solar Model Indicator
  ,                                       ! Beam Solar Day Schedule Name
  ,                                       ! Diffuse Solar Day Schedule Name
  0.409,                                  ! ASHRAE Taub {dimensionless}
  2.21;                                   ! ASHRAE Taud {dimensionless}

OS:ComponentData,
  {ccd2ff39-28a5-4b7c-9264-612708295ea5}, ! Handle
  Component Data 1,                       ! Name
  {cf5e5047-e043-4cba-abf4-5d4d1d5e9952}, ! UUID
  {fb556ff4-818d-489f-8dbe-da85b81f116b}, ! Version UUID
  1366307210,                             ! Creation Timestamp
  1366307210,                             ! Version Timestamp
  {4925fed9-a097-43e5-8338-0af6cf4e4571}; ! Name of Object 1

