
OS:Version,
  {9e604d84-42c3-4074-9b70-953e50f580a3}, ! Handle
  0.9.3;                                  ! Version Identifier

OS:SizingPeriod:DesignDay,
  {99868f07-ec21-45e2-b4e5-fefa84eb0c52}, ! Handle
  Red Wing Ann Clg 2% Condns DP=>MDB,     ! Name
  26.1,                                   ! Maximum Dry-Bulb Temperature {C}
  11.2,                                   ! Daily Dry-Bulb Temperature Range {deltaC}
  22,                                     ! Humidity Indicating Conditions at Maximum Dry-Bulb {BasedOnField A3}
  98487,                                  ! Barometric Pressure {Pa}
  4.4,                                    ! Wind Speed {m/s}
  190,                                    ! Wind Direction {deg}
  0,                                      ! Sky Clearness
  0,                                      ! Rain Indicator
  0,                                      ! Snow Indicator
  21,                                     ! Day of Month
  7,                                      ! Month
  SummerDesignDay,                        ! Day Type
  0,                                      ! Daylight Saving Time Indicator
  Dewpoint,                               ! Humidity Indicating Type
  ,                                       ! Humidity Indicating Day Schedule Name
  DefaultMultipliers,                     ! Dry-Bulb Temperature Range Modifier Type
  ,                                       ! Dry-Bulb Temperature Range Modifier Schedule Name
  ASHRAETau,                              ! Solar Model Indicator
  ,                                       ! Beam Solar Day Schedule Name
  ,                                       ! Diffuse Solar Day Schedule Name
  0.413,                                  ! ASHRAE Taub {dimensionless}
  2.205;                                  ! ASHRAE Taud {dimensionless}

OS:ComponentData,
  {ae002430-8949-4459-b142-02c84669d8ee}, ! Handle
  Component Data 1,                       ! Name
  {a3943a82-a3ac-4f2b-a5e8-af0ac738b4ee}, ! UUID
  {acf2aa77-62ea-4cd2-bc00-1db146316002}, ! Version UUID
  1366308376,                             ! Creation Timestamp
  1366308376,                             ! Version Timestamp
  {99868f07-ec21-45e2-b4e5-fefa84eb0c52}; ! Name of Object 1

