
OS:Version,
  {e87d1ccf-e649-4d37-ad50-b53e76760527}, ! Handle
  0.9.3;                                  ! Version Identifier

OS:SizingPeriod:DesignDay,
  {d69d6d23-f303-4f3b-8477-3cc75ad0b92d}, ! Handle
  Yakutat State Arpt Ann Htg Wind 99% Condns WS=>MCDB, ! Name
  3,                                      ! Maximum Dry-Bulb Temperature {C}
  0,                                      ! Daily Dry-Bulb Temperature Range {deltaC}
  3,                                      ! Humidity Indicating Conditions at Maximum Dry-Bulb {BasedOnField A3}
  101229,                                 ! Barometric Pressure {Pa}
  11,                                     ! Wind Speed {m/s}
  100,                                    ! Wind Direction {deg}
  0,                                      ! Sky Clearness
  0,                                      ! Rain Indicator
  0,                                      ! Snow Indicator
  21,                                     ! Day of Month
  1,                                      ! Month
  WinterDesignDay,                        ! Day Type
  0,                                      ! Daylight Saving Time Indicator
  Wetbulb,                                ! Humidity Indicating Type
  ,                                       ! Humidity Indicating Day Schedule Name
  DefaultMultipliers,                     ! Dry-Bulb Temperature Range Modifier Type
  ,                                       ! Dry-Bulb Temperature Range Modifier Schedule Name
  ASHRAEClearSky;                         ! Solar Model Indicator

OS:ComponentData,
  {5d5778f2-a560-4f5d-b6e7-e00d5393f377}, ! Handle
  Component Data 1,                       ! Name
  {6b93caa4-dc01-49bc-b094-97a063b230dd}, ! UUID
  {8f329d45-e1e5-4cde-9ca4-ec925b5860c6}, ! Version UUID
  1366305630,                             ! Creation Timestamp
  1366305630,                             ! Version Timestamp
  {d69d6d23-f303-4f3b-8477-3cc75ad0b92d}; ! Name of Object 1

