
OS:Version,
  {0c1811e4-c756-42c2-ae47-a12fdf5b3eee}, ! Handle
  0.9.3;                                  ! Version Identifier

OS:SizingPeriod:DesignDay,
  {dc47b7c5-49fb-4e54-ad72-111fb7754894}, ! Handle
  Rochester Greater Rochester I Ann Clg 1% Condns DP=>MDB, ! Name
  25.7,                                   ! Maximum Dry-Bulb Temperature {C}
  10.7,                                   ! Daily Dry-Bulb Temperature Range {deltaC}
  21.6,                                   ! Humidity Indicating Conditions at Maximum Dry-Bulb {BasedOnField A3}
  99146,                                  ! Barometric Pressure {Pa}
  5.2,                                    ! Wind Speed {m/s}
  240,                                    ! Wind Direction {deg}
  0,                                      ! Sky Clearness
  0,                                      ! Rain Indicator
  0,                                      ! Snow Indicator
  21,                                     ! Day of Month
  7,                                      ! Month
  SummerDesignDay,                        ! Day Type
  0,                                      ! Daylight Saving Time Indicator
  Dewpoint,                               ! Humidity Indicating Type
  ,                                       ! Humidity Indicating Day Schedule Name
  DefaultMultipliers,                     ! Dry-Bulb Temperature Range Modifier Type
  ,                                       ! Dry-Bulb Temperature Range Modifier Schedule Name
  ASHRAETau,                              ! Solar Model Indicator
  ,                                       ! Beam Solar Day Schedule Name
  ,                                       ! Diffuse Solar Day Schedule Name
  0.463,                                  ! ASHRAE Taub {dimensionless}
  2.001;                                  ! ASHRAE Taud {dimensionless}

OS:ComponentData,
  {7ab42ca4-10f0-4287-af01-f886d4758768}, ! Handle
  Component Data 1,                       ! Name
  {c650fd8e-9064-46bc-bb9d-963647b3d419}, ! UUID
  {f4fc410b-4b82-41d3-8a16-0dbc45a610e5}, ! Version UUID
  1366309719,                             ! Creation Timestamp
  1366309719,                             ! Version Timestamp
  {dc47b7c5-49fb-4e54-ad72-111fb7754894}; ! Name of Object 1

