
OS:Version,
  {349b9f90-63e4-429b-8cf3-a80197013932}, ! Handle
  0.9.3;                                  ! Version Identifier

OS:SizingPeriod:DesignDay,
  {99a81a31-0689-40d9-acbc-a5d58471f0de}, ! Handle
  Reading Spaatz Field Ann Clg .4% Condns WB=>MDB, ! Name
  30.8,                                   ! Maximum Dry-Bulb Temperature {C}
  10.9,                                   ! Daily Dry-Bulb Temperature Range {deltaC}
  25.1,                                   ! Humidity Indicating Conditions at Maximum Dry-Bulb {BasedOnField A3}
  100082,                                 ! Barometric Pressure {Pa}
  4.5,                                    ! Wind Speed {m/s}
  270,                                    ! Wind Direction {deg}
  0,                                      ! Sky Clearness
  0,                                      ! Rain Indicator
  0,                                      ! Snow Indicator
  21,                                     ! Day of Month
  7,                                      ! Month
  SummerDesignDay,                        ! Day Type
  0,                                      ! Daylight Saving Time Indicator
  Wetbulb,                                ! Humidity Indicating Type
  ,                                       ! Humidity Indicating Day Schedule Name
  DefaultMultipliers,                     ! Dry-Bulb Temperature Range Modifier Type
  ,                                       ! Dry-Bulb Temperature Range Modifier Schedule Name
  ASHRAETau,                              ! Solar Model Indicator
  ,                                       ! Beam Solar Day Schedule Name
  ,                                       ! Diffuse Solar Day Schedule Name
  0.516,                                  ! ASHRAE Taub {dimensionless}
  1.849;                                  ! ASHRAE Taud {dimensionless}

OS:ComponentData,
  {79f5df85-2937-4b33-8909-1ca4fc8ce347}, ! Handle
  Component Data 1,                       ! Name
  {42a5b477-3797-4534-bf30-7f7a233318c9}, ! UUID
  {99b14c75-97d2-4e1d-b4bb-8c1e7e1985b5}, ! Version UUID
  1366310251,                             ! Creation Timestamp
  1366310251,                             ! Version Timestamp
  {99a81a31-0689-40d9-acbc-a5d58471f0de}; ! Name of Object 1

