
OS:Version,
  {ce1f1e89-57cd-43be-90ea-83e5269ae922}, ! Handle
  0.9.3;                                  ! Version Identifier

OS:SizingPeriod:DesignDay,
  {f860218c-72bd-4258-b72b-cb39676f255a}, ! Handle
  REDMOND Ann Clg 2% Condns Enth=>MDB,    ! Name
  28.5,                                   ! Maximum Dry-Bulb Temperature {C}
  20,                                     ! Daily Dry-Bulb Temperature Range {deltaC}
  47700,                                  ! Humidity Indicating Conditions at Maximum Dry-Bulb {BasedOnField A3}
  90531,                                  ! Barometric Pressure {Pa}
  4.7,                                    ! Wind Speed {m/s}
  350,                                    ! Wind Direction {deg}
  0,                                      ! Sky Clearness
  0,                                      ! Rain Indicator
  0,                                      ! Snow Indicator
  21,                                     ! Day of Month
  7,                                      ! Month
  SummerDesignDay,                        ! Day Type
  0,                                      ! Daylight Saving Time Indicator
  Enthalpy,                               ! Humidity Indicating Type
  ,                                       ! Humidity Indicating Day Schedule Name
  DefaultMultipliers,                     ! Dry-Bulb Temperature Range Modifier Type
  ,                                       ! Dry-Bulb Temperature Range Modifier Schedule Name
  ASHRAETau,                              ! Solar Model Indicator
  ,                                       ! Beam Solar Day Schedule Name
  ,                                       ! Diffuse Solar Day Schedule Name
  0.355,                                  ! ASHRAE Taub {dimensionless}
  2.422;                                  ! ASHRAE Taud {dimensionless}

