
OS:Version,
  {92c25f71-e8dc-48c7-b8da-0c3bd89eb898}, ! Handle
  0.9.3;                                  ! Version Identifier

OS:SizingPeriod:DesignDay,
  {91413d93-ba73-4360-897a-e77a8949ad66}, ! Handle
  WINNEMUCCA Ann Htg Wind 99% Condns WS=>MCDB, ! Name
  5.6,                                    ! Maximum Dry-Bulb Temperature {C}
  0,                                      ! Daily Dry-Bulb Temperature Range {deltaC}
  5.6,                                    ! Humidity Indicating Conditions at Maximum Dry-Bulb {BasedOnField A3}
  86409,                                  ! Barometric Pressure {Pa}
  10.5,                                   ! Wind Speed {m/s}
  160,                                    ! Wind Direction {deg}
  0,                                      ! Sky Clearness
  0,                                      ! Rain Indicator
  0,                                      ! Snow Indicator
  21,                                     ! Day of Month
  12,                                     ! Month
  WinterDesignDay,                        ! Day Type
  0,                                      ! Daylight Saving Time Indicator
  Wetbulb,                                ! Humidity Indicating Type
  ,                                       ! Humidity Indicating Day Schedule Name
  DefaultMultipliers,                     ! Dry-Bulb Temperature Range Modifier Type
  ,                                       ! Dry-Bulb Temperature Range Modifier Schedule Name
  ASHRAEClearSky;                         ! Solar Model Indicator

OS:ComponentData,
  {ad890333-0434-458f-a6cd-415e17e29788}, ! Handle
  Component Data 1,                       ! Name
  {7cb75ba8-d6a5-48a2-86a1-17cb2c7c8119}, ! UUID
  {f9d293c8-63bb-4eee-8029-73499bb96949}, ! Version UUID
  1366309558,                             ! Creation Timestamp
  1366309558,                             ! Version Timestamp
  {91413d93-ba73-4360-897a-e77a8949ad66}; ! Name of Object 1

