
OS:Version,
  {4ed4a7f5-499d-44c8-8ea5-a66a9e6381ab}, ! Handle
  0.9.3;                                  ! Version Identifier

OS:SizingPeriod:DesignDay,
  {b510d908-e125-478f-a4bb-a95e9e0dbb0f}, ! Handle
  Minot Faa Ap Ann Htg 99% Condns DB,     ! Name
  -26.1,                                  ! Maximum Dry-Bulb Temperature {C}
  0,                                      ! Daily Dry-Bulb Temperature Range {deltaC}
  -26.1,                                  ! Humidity Indicating Conditions at Maximum Dry-Bulb {BasedOnField A3}
  95198,                                  ! Barometric Pressure {Pa}
  5.4,                                    ! Wind Speed {m/s}
  280,                                    ! Wind Direction {deg}
  0,                                      ! Sky Clearness
  0,                                      ! Rain Indicator
  0,                                      ! Snow Indicator
  21,                                     ! Day of Month
  1,                                      ! Month
  WinterDesignDay,                        ! Day Type
  0,                                      ! Daylight Saving Time Indicator
  Wetbulb,                                ! Humidity Indicating Type
  ,                                       ! Humidity Indicating Day Schedule Name
  DefaultMultipliers,                     ! Dry-Bulb Temperature Range Modifier Type
  ,                                       ! Dry-Bulb Temperature Range Modifier Schedule Name
  ASHRAEClearSky;                         ! Solar Model Indicator

OS:ComponentData,
  {bd7ecba9-4118-4baa-8535-33f151ff587a}, ! Handle
  Component Data 1,                       ! Name
  {146fdd85-e51e-4ee7-9921-6a72b45f509f}, ! UUID
  {17d0b977-f95f-428e-a40e-88abfa34fc91}, ! Version UUID
  1366309067,                             ! Creation Timestamp
  1366309067,                             ! Version Timestamp
  {b510d908-e125-478f-a4bb-a95e9e0dbb0f}; ! Name of Object 1

