
OS:Version,
  {347f6990-03a6-4c9f-be32-239a158ac617}, ! Handle
  0.9.3;                                  ! Version Identifier

OS:SizingPeriod:DesignDay,
  {40faa805-ae34-4793-be31-ae3a86ac6b1d}, ! Handle
  Meridian Naas Ann Hum_n 99.6% Condns DP=>MCDB, ! Name
  -2.8,                                   ! Maximum Dry-Bulb Temperature {C}
  0,                                      ! Daily Dry-Bulb Temperature Range {deltaC}
  -13.8,                                  ! Humidity Indicating Conditions at Maximum Dry-Bulb {BasedOnField A3}
  100332,                                 ! Barometric Pressure {Pa}
  1.8,                                    ! Wind Speed {m/s}
  330,                                    ! Wind Direction {deg}
  0,                                      ! Sky Clearness
  0,                                      ! Rain Indicator
  0,                                      ! Snow Indicator
  21,                                     ! Day of Month
  1,                                      ! Month
  WinterDesignDay,                        ! Day Type
  0,                                      ! Daylight Saving Time Indicator
  Dewpoint,                               ! Humidity Indicating Type
  ,                                       ! Humidity Indicating Day Schedule Name
  DefaultMultipliers,                     ! Dry-Bulb Temperature Range Modifier Type
  ,                                       ! Dry-Bulb Temperature Range Modifier Schedule Name
  ASHRAEClearSky;                         ! Solar Model Indicator

OS:ComponentData,
  {7ffe477c-d12c-4c2a-80ce-6801a251b3db}, ! Handle
  Component Data 1,                       ! Name
  {55a24944-0838-4fc4-8093-0d6e6a775058}, ! UUID
  {0094c9dd-915e-4a5d-98e6-4d9a5afec739}, ! Version UUID
  1366308679,                             ! Creation Timestamp
  1366308679,                             ! Version Timestamp
  {40faa805-ae34-4793-be31-ae3a86ac6b1d}; ! Name of Object 1

