
OS:Version,
  {40c374e3-5fc7-4146-9514-7ef63e54a567}, ! Handle
  0.9.3;                                  ! Version Identifier

OS:SizingPeriod:DesignDay,
  {056862e2-ff0b-4263-9121-dfed9d7dda29}, ! Handle
  Mccook Municipal Ann Htg Wind 99% Condns WS=>MCDB, ! Name
  5.2,                                    ! Maximum Dry-Bulb Temperature {C}
  0,                                      ! Daily Dry-Bulb Temperature Range {deltaC}
  5.2,                                    ! Humidity Indicating Conditions at Maximum Dry-Bulb {BasedOnField A3}
  92232,                                  ! Barometric Pressure {Pa}
  12.6,                                   ! Wind Speed {m/s}
  320,                                    ! Wind Direction {deg}
  0,                                      ! Sky Clearness
  0,                                      ! Rain Indicator
  0,                                      ! Snow Indicator
  21,                                     ! Day of Month
  1,                                      ! Month
  WinterDesignDay,                        ! Day Type
  0,                                      ! Daylight Saving Time Indicator
  Wetbulb,                                ! Humidity Indicating Type
  ,                                       ! Humidity Indicating Day Schedule Name
  DefaultMultipliers,                     ! Dry-Bulb Temperature Range Modifier Type
  ,                                       ! Dry-Bulb Temperature Range Modifier Schedule Name
  ASHRAEClearSky;                         ! Solar Model Indicator

OS:ComponentData,
  {81bcbcc2-9e9c-41a1-a180-0fb2326a30a2}, ! Handle
  Component Data 1,                       ! Name
  {78f7064e-7e7f-4572-b108-f19f9cfaa5c2}, ! UUID
  {5f21e4bc-fe8c-48fd-ad13-ba46bc4eede7}, ! Version UUID
  1366309143,                             ! Creation Timestamp
  1366309143,                             ! Version Timestamp
  {056862e2-ff0b-4263-9121-dfed9d7dda29}; ! Name of Object 1

