
OS:Version,
  {e4985699-6feb-408a-9a39-c9603b843eba}, ! Handle
  0.9.3;                                  ! Version Identifier

OS:SizingPeriod:DesignDay,
  {e92e5917-f1c8-4f01-8ac2-6d3b2d52332c}, ! Handle
  Tampa/Int'l Airport Ann Clg .4% Condns DP=>MDB, ! Name
  29.3,                                   ! Maximum Dry-Bulb Temperature {C}
  7.9,                                    ! Daily Dry-Bulb Temperature Range {deltaC}
  25.8,                                   ! Humidity Indicating Conditions at Maximum Dry-Bulb {BasedOnField A3}
  101289,                                 ! Barometric Pressure {Pa}
  3.9,                                    ! Wind Speed {m/s}
  260,                                    ! Wind Direction {deg}
  0,                                      ! Sky Clearness
  0,                                      ! Rain Indicator
  0,                                      ! Snow Indicator
  21,                                     ! Day of Month
  8,                                      ! Month
  SummerDesignDay,                        ! Day Type
  0,                                      ! Daylight Saving Time Indicator
  Dewpoint,                               ! Humidity Indicating Type
  ,                                       ! Humidity Indicating Day Schedule Name
  DefaultMultipliers,                     ! Dry-Bulb Temperature Range Modifier Type
  ,                                       ! Dry-Bulb Temperature Range Modifier Schedule Name
  ASHRAETau,                              ! Solar Model Indicator
  ,                                       ! Beam Solar Day Schedule Name
  ,                                       ! Diffuse Solar Day Schedule Name
  0.493,                                  ! ASHRAE Taub {dimensionless}
  2.01;                                   ! ASHRAE Taud {dimensionless}

OS:ComponentData,
  {4cec83d8-cd9f-43a7-8092-10138ee4d6b5}, ! Handle
  Component Data 1,                       ! Name
  {d09b9850-a44d-4eda-8ab5-9843cf8e5a40}, ! UUID
  {812f3469-a5fb-4dea-81aa-0a6f6007bce6}, ! Version UUID
  1366306933,                             ! Creation Timestamp
  1366306933,                             ! Version Timestamp
  {e92e5917-f1c8-4f01-8ac2-6d3b2d52332c}; ! Name of Object 1

