
OS:Version,
  {88390a76-adf1-4fc8-8555-d13f87007f37}, ! Handle
  0.9.3;                                  ! Version Identifier

OS:SizingPeriod:DesignDay,
  {29004cc1-12a5-413a-adf4-b7f09292530e}, ! Handle
  Shreveport Downtown Ann Clg 2% Condns DB=>MWB, ! Name
  34.5,                                   ! Maximum Dry-Bulb Temperature {C}
  9.9,                                    ! Daily Dry-Bulb Temperature Range {deltaC}
  24.5,                                   ! Humidity Indicating Conditions at Maximum Dry-Bulb {BasedOnField A3}
  100666,                                 ! Barometric Pressure {Pa}
  3,                                      ! Wind Speed {m/s}
  130,                                    ! Wind Direction {deg}
  0,                                      ! Sky Clearness
  0,                                      ! Rain Indicator
  0,                                      ! Snow Indicator
  21,                                     ! Day of Month
  7,                                      ! Month
  SummerDesignDay,                        ! Day Type
  0,                                      ! Daylight Saving Time Indicator
  Wetbulb,                                ! Humidity Indicating Type
  ,                                       ! Humidity Indicating Day Schedule Name
  DefaultMultipliers,                     ! Dry-Bulb Temperature Range Modifier Type
  ,                                       ! Dry-Bulb Temperature Range Modifier Schedule Name
  ASHRAETau,                              ! Solar Model Indicator
  ,                                       ! Beam Solar Day Schedule Name
  ,                                       ! Diffuse Solar Day Schedule Name
  0.491,                                  ! ASHRAE Taub {dimensionless}
  2.008;                                  ! ASHRAE Taud {dimensionless}

OS:ComponentData,
  {c74498ec-68ab-453e-93ca-175d7cce135d}, ! Handle
  Component Data 1,                       ! Name
  {3b067420-999c-4928-baa0-0c52715910cc}, ! UUID
  {2cbbd543-2562-4d24-87ee-b5b5f1df31a2}, ! Version UUID
  1366307766,                             ! Creation Timestamp
  1366307766,                             ! Version Timestamp
  {29004cc1-12a5-413a-adf4-b7f09292530e}; ! Name of Object 1

