
OS:Version,
  {13a6e49c-a863-4665-be25-4c2cfeb1285d}, ! Handle
  0.9.3;                                  ! Version Identifier

OS:SizingPeriod:DesignDay,
  {bf4a9613-9d79-45e1-aafb-20e2ffec3dff}, ! Handle
  WINNEMUCCA Ann Clg 2% Condns Enth=>MDB, ! Name
  31.1,                                   ! Maximum Dry-Bulb Temperature {C}
  21.5,                                   ! Daily Dry-Bulb Temperature Range {deltaC}
  50300,                                  ! Humidity Indicating Conditions at Maximum Dry-Bulb {BasedOnField A3}
  86409,                                  ! Barometric Pressure {Pa}
  4.4,                                    ! Wind Speed {m/s}
  240,                                    ! Wind Direction {deg}
  0,                                      ! Sky Clearness
  0,                                      ! Rain Indicator
  0,                                      ! Snow Indicator
  21,                                     ! Day of Month
  7,                                      ! Month
  SummerDesignDay,                        ! Day Type
  0,                                      ! Daylight Saving Time Indicator
  Enthalpy,                               ! Humidity Indicating Type
  ,                                       ! Humidity Indicating Day Schedule Name
  DefaultMultipliers,                     ! Dry-Bulb Temperature Range Modifier Type
  ,                                       ! Dry-Bulb Temperature Range Modifier Schedule Name
  ASHRAETau,                              ! Solar Model Indicator
  ,                                       ! Beam Solar Day Schedule Name
  ,                                       ! Diffuse Solar Day Schedule Name
  0.441,                                  ! ASHRAE Taub {dimensionless}
  1.893;                                  ! ASHRAE Taud {dimensionless}

OS:ComponentData,
  {b70c1eea-cf01-43b9-bc76-dce0f8aad9d3}, ! Handle
  Component Data 1,                       ! Name
  {65e06d4d-8f0c-43a0-b094-181adac366fe}, ! UUID
  {da7a861a-dda2-45a0-85fe-7601e8908f13}, ! Version UUID
  1366309561,                             ! Creation Timestamp
  1366309561,                             ! Version Timestamp
  {bf4a9613-9d79-45e1-aafb-20e2ffec3dff}; ! Name of Object 1

