
OS:Version,
  {3f5bfbf5-673c-40d7-a30c-51ce90fc6fed}, ! Handle
  0.9.3;                                  ! Version Identifier

OS:SizingPeriod:DesignDay,
  {7eb4405c-3c02-4523-a807-4347ffc15c07}, ! Handle
  SEATTLE Ann Clg 2% Condns Enth=>MDB,    ! Name
  24.4,                                   ! Maximum Dry-Bulb Temperature {C}
  10.4,                                   ! Daily Dry-Bulb Temperature Range {deltaC}
  49100,                                  ! Humidity Indicating Conditions at Maximum Dry-Bulb {BasedOnField A3}
  99868,                                  ! Barometric Pressure {Pa}
  4.2,                                    ! Wind Speed {m/s}
  350,                                    ! Wind Direction {deg}
  0,                                      ! Sky Clearness
  0,                                      ! Rain Indicator
  0,                                      ! Snow Indicator
  21,                                     ! Day of Month
  8,                                      ! Month
  SummerDesignDay,                        ! Day Type
  0,                                      ! Daylight Saving Time Indicator
  Enthalpy,                               ! Humidity Indicating Type
  ,                                       ! Humidity Indicating Day Schedule Name
  DefaultMultipliers,                     ! Dry-Bulb Temperature Range Modifier Type
  ,                                       ! Dry-Bulb Temperature Range Modifier Schedule Name
  ASHRAETau,                              ! Solar Model Indicator
  ,                                       ! Beam Solar Day Schedule Name
  ,                                       ! Diffuse Solar Day Schedule Name
  0.352,                                  ! ASHRAE Taub {dimensionless}
  2.561;                                  ! ASHRAE Taud {dimensionless}

