
OS:Version,
  {f4820db2-9793-4bf7-b6fd-e8fdcf44795f}, ! Handle
  0.9.3;                                  ! Version Identifier

OS:SizingPeriod:DesignDay,
  {c6b5cf86-af3b-4704-a336-2b4b79547e59}, ! Handle
  SEATTLE Ann Clg 2% Condns Enth=>MDB,    ! Name
  24.4,                                   ! Maximum Dry-Bulb Temperature {C}
  10.4,                                   ! Daily Dry-Bulb Temperature Range {deltaC}
  49100,                                  ! Humidity Indicating Conditions at Maximum Dry-Bulb {BasedOnField A3}
  99868,                                  ! Barometric Pressure {Pa}
  4.2,                                    ! Wind Speed {m/s}
  350,                                    ! Wind Direction {deg}
  0,                                      ! Sky Clearness
  0,                                      ! Rain Indicator
  0,                                      ! Snow Indicator
  21,                                     ! Day of Month
  8,                                      ! Month
  SummerDesignDay,                        ! Day Type
  0,                                      ! Daylight Saving Time Indicator
  Enthalpy,                               ! Humidity Indicating Type
  ,                                       ! Humidity Indicating Day Schedule Name
  DefaultMultipliers,                     ! Dry-Bulb Temperature Range Modifier Type
  ,                                       ! Dry-Bulb Temperature Range Modifier Schedule Name
  ASHRAETau,                              ! Solar Model Indicator
  ,                                       ! Beam Solar Day Schedule Name
  ,                                       ! Diffuse Solar Day Schedule Name
  0.352,                                  ! ASHRAE Taub {dimensionless}
  2.561;                                  ! ASHRAE Taud {dimensionless}

OS:ComponentData,
  {3e3bdba3-1014-4423-af72-70d9268dc8f4}, ! Handle
  Component Data 1,                       ! Name
  {53b655e2-fbf7-4cc5-8002-9c21580c0aa6}, ! UUID
  {cdef121c-1ae0-4bfc-84ee-2b56eff217c8}, ! Version UUID
  1366311355,                             ! Creation Timestamp
  1366311355,                             ! Version Timestamp
  {c6b5cf86-af3b-4704-a336-2b4b79547e59}; ! Name of Object 1

