
OS:Version,
  {943e76b1-50aa-4081-b6d8-2e32e8b1299a}, ! Handle
  0.9.3;                                  ! Version Identifier

OS:SizingPeriod:DesignDay,
  {84503d73-ee8a-470e-8c0e-d85c07a5322f}, ! Handle
  Milwaukee Ann Clg 2% Condns DP=>MDB,    ! Name
  25.8,                                   ! Maximum Dry-Bulb Temperature {C}
  8.7,                                    ! Daily Dry-Bulb Temperature Range {deltaC}
  21.3,                                   ! Humidity Indicating Conditions at Maximum Dry-Bulb {BasedOnField A3}
  98816,                                  ! Barometric Pressure {Pa}
  6.4,                                    ! Wind Speed {m/s}
  240,                                    ! Wind Direction {deg}
  0,                                      ! Sky Clearness
  0,                                      ! Rain Indicator
  0,                                      ! Snow Indicator
  21,                                     ! Day of Month
  7,                                      ! Month
  SummerDesignDay,                        ! Day Type
  0,                                      ! Daylight Saving Time Indicator
  Dewpoint,                               ! Humidity Indicating Type
  ,                                       ! Humidity Indicating Day Schedule Name
  DefaultMultipliers,                     ! Dry-Bulb Temperature Range Modifier Type
  ,                                       ! Dry-Bulb Temperature Range Modifier Schedule Name
  ASHRAETau,                              ! Solar Model Indicator
  ,                                       ! Beam Solar Day Schedule Name
  ,                                       ! Diffuse Solar Day Schedule Name
  0.452,                                  ! ASHRAE Taub {dimensionless}
  2.061;                                  ! ASHRAE Taud {dimensionless}

OS:ComponentData,
  {23434439-693a-46e8-b5e5-1590cf090de9}, ! Handle
  Component Data 1,                       ! Name
  {a75c41dd-6184-4310-9f7c-b4b928b7b652}, ! UUID
  {f6696e6b-ae39-4d9a-9e9d-77aa543ef984}, ! Version UUID
  1366311553,                             ! Creation Timestamp
  1366311553,                             ! Version Timestamp
  {84503d73-ee8a-470e-8c0e-d85c07a5322f}; ! Name of Object 1

