
OS:Version,
  {31cc571b-94c3-4196-88b5-721fefcf1da1}, ! Handle
  0.9.3;                                  ! Version Identifier

OS:SizingPeriod:DesignDay,
  {46813cbc-36e6-4f59-9fc9-e2e7cff5f57b}, ! Handle
  Wilkes-Barre/Scranton Ann Clg 1% Condns WB=>MDB, ! Name
  27.5,                                   ! Maximum Dry-Bulb Temperature {C}
  10.8,                                   ! Daily Dry-Bulb Temperature Range {deltaC}
  23,                                     ! Humidity Indicating Conditions at Maximum Dry-Bulb {BasedOnField A3}
  97901,                                  ! Barometric Pressure {Pa}
  4.5,                                    ! Wind Speed {m/s}
  240,                                    ! Wind Direction {deg}
  0,                                      ! Sky Clearness
  0,                                      ! Rain Indicator
  0,                                      ! Snow Indicator
  21,                                     ! Day of Month
  7,                                      ! Month
  SummerDesignDay,                        ! Day Type
  0,                                      ! Daylight Saving Time Indicator
  Wetbulb,                                ! Humidity Indicating Type
  ,                                       ! Humidity Indicating Day Schedule Name
  DefaultMultipliers,                     ! Dry-Bulb Temperature Range Modifier Type
  ,                                       ! Dry-Bulb Temperature Range Modifier Schedule Name
  ASHRAETau,                              ! Solar Model Indicator
  ,                                       ! Beam Solar Day Schedule Name
  ,                                       ! Diffuse Solar Day Schedule Name
  0.477,                                  ! ASHRAE Taub {dimensionless}
  1.945;                                  ! ASHRAE Taud {dimensionless}

OS:ComponentData,
  {2d641f8b-34b0-4b04-87f2-2d9b1d3a201d}, ! Handle
  Component Data 1,                       ! Name
  {6a122ee8-c235-4279-9b8f-7c740f0b376d}, ! UUID
  {565b04b8-a03f-45ab-80f8-a775588a5bce}, ! Version UUID
  1366310262,                             ! Creation Timestamp
  1366310262,                             ! Version Timestamp
  {46813cbc-36e6-4f59-9fc9-e2e7cff5f57b}; ! Name of Object 1

