
OS:Version,
  {ceb7ea10-857f-4c86-a2c5-55912c3e7f55}, ! Handle
  0.9.3;                                  ! Version Identifier

OS:SizingPeriod:DesignDay,
  {cc3d5ce2-7cab-41e8-8362-7f5c47eb9ba7}, ! Handle
  Meridian Naas Ann Clg 2% Condns DP=>MDB, ! Name
  28.7,                                   ! Maximum Dry-Bulb Temperature {C}
  11.7,                                   ! Daily Dry-Bulb Temperature Range {deltaC}
  23.9,                                   ! Humidity Indicating Conditions at Maximum Dry-Bulb {BasedOnField A3}
  100332,                                 ! Barometric Pressure {Pa}
  2,                                      ! Wind Speed {m/s}
  270,                                    ! Wind Direction {deg}
  0,                                      ! Sky Clearness
  0,                                      ! Rain Indicator
  0,                                      ! Snow Indicator
  21,                                     ! Day of Month
  7,                                      ! Month
  SummerDesignDay,                        ! Day Type
  0,                                      ! Daylight Saving Time Indicator
  Dewpoint,                               ! Humidity Indicating Type
  ,                                       ! Humidity Indicating Day Schedule Name
  DefaultMultipliers,                     ! Dry-Bulb Temperature Range Modifier Type
  ,                                       ! Dry-Bulb Temperature Range Modifier Schedule Name
  ASHRAETau,                              ! Solar Model Indicator
  ,                                       ! Beam Solar Day Schedule Name
  ,                                       ! Diffuse Solar Day Schedule Name
  0.555,                                  ! ASHRAE Taub {dimensionless}
  1.808;                                  ! ASHRAE Taud {dimensionless}

OS:ComponentData,
  {5209255c-3108-4696-8f27-aca3931751fc}, ! Handle
  Component Data 1,                       ! Name
  {11827bc3-9272-43aa-80e4-0beceef3a56c}, ! UUID
  {6e0a3ef4-496d-4265-93c5-d7cedac4c55c}, ! Version UUID
  1366308681,                             ! Creation Timestamp
  1366308681,                             ! Version Timestamp
  {cc3d5ce2-7cab-41e8-8362-7f5c47eb9ba7}; ! Name of Object 1

