
OS:Version,
  {eed11b00-db9d-427b-9d50-ab47c23c557d}, ! Handle
  0.9.3;                                  ! Version Identifier

OS:SizingPeriod:DesignDay,
  {e3acc97a-96ce-4f83-ba2e-6f738ece31e9}, ! Handle
  NEW_YORK Ann Clg 1% Condns DP=>MDB,     ! Name
  26.1,                                   ! Maximum Dry-Bulb Temperature {C}
  7.4,                                    ! Daily Dry-Bulb Temperature Range {deltaC}
  23.2,                                   ! Humidity Indicating Conditions at Maximum Dry-Bulb {BasedOnField A3}
  100642,                                 ! Barometric Pressure {Pa}
  5.6,                                    ! Wind Speed {m/s}
  230,                                    ! Wind Direction {deg}
  0,                                      ! Sky Clearness
  0,                                      ! Rain Indicator
  0,                                      ! Snow Indicator
  21,                                     ! Day of Month
  7,                                      ! Month
  SummerDesignDay,                        ! Day Type
  0,                                      ! Daylight Saving Time Indicator
  Dewpoint,                               ! Humidity Indicating Type
  ,                                       ! Humidity Indicating Day Schedule Name
  DefaultMultipliers,                     ! Dry-Bulb Temperature Range Modifier Type
  ,                                       ! Dry-Bulb Temperature Range Modifier Schedule Name
  ASHRAETau,                              ! Solar Model Indicator
  ,                                       ! Beam Solar Day Schedule Name
  ,                                       ! Diffuse Solar Day Schedule Name
  0.541,                                  ! ASHRAE Taub {dimensionless}
  1.8;                                    ! ASHRAE Taud {dimensionless}

OS:ComponentData,
  {4c559291-1bae-4f74-a906-9d511511684e}, ! Handle
  Component Data 1,                       ! Name
  {cdb27a22-d6bc-465b-9e5c-0b95d598fe86}, ! UUID
  {e0617e32-ba7d-4180-ad5f-acf827f5ed0d}, ! Version UUID
  1366309690,                             ! Creation Timestamp
  1366309690,                             ! Version Timestamp
  {e3acc97a-96ce-4f83-ba2e-6f738ece31e9}; ! Name of Object 1

