
OS:Version,
  {e5ebe6bf-ad24-4c72-b64f-54b0fc391339}, ! Handle
  0.9.3;                                  ! Version Identifier

OS:SizingPeriod:DesignDay,
  {f1d093d7-31f9-4f15-89f2-57a97e2085d4}, ! Handle
  RICHMOND Ann Clg 2% Condns Enth=>MDB,   ! Name
  30.1,                                   ! Maximum Dry-Bulb Temperature {C}
  10.4,                                   ! Daily Dry-Bulb Temperature Range {deltaC}
  75000,                                  ! Humidity Indicating Conditions at Maximum Dry-Bulb {BasedOnField A3}
  100726,                                 ! Barometric Pressure {Pa}
  4.5,                                    ! Wind Speed {m/s}
  230,                                    ! Wind Direction {deg}
  0,                                      ! Sky Clearness
  0,                                      ! Rain Indicator
  0,                                      ! Snow Indicator
  21,                                     ! Day of Month
  7,                                      ! Month
  SummerDesignDay,                        ! Day Type
  0,                                      ! Daylight Saving Time Indicator
  Enthalpy,                               ! Humidity Indicating Type
  ,                                       ! Humidity Indicating Day Schedule Name
  DefaultMultipliers,                     ! Dry-Bulb Temperature Range Modifier Type
  ,                                       ! Dry-Bulb Temperature Range Modifier Schedule Name
  ASHRAETau,                              ! Solar Model Indicator
  ,                                       ! Beam Solar Day Schedule Name
  ,                                       ! Diffuse Solar Day Schedule Name
  0.567,                                  ! ASHRAE Taub {dimensionless}
  1.742;                                  ! ASHRAE Taud {dimensionless}

OS:ComponentData,
  {8e9c99fb-dfca-4c34-9000-2670236a286d}, ! Handle
  Component Data 1,                       ! Name
  {69daadec-3759-45ed-a3dd-50f4beb36012}, ! UUID
  {62730ae7-0b78-46a0-a087-6d3d0e1a3fc6}, ! Version UUID
  1366311165,                             ! Creation Timestamp
  1366311165,                             ! Version Timestamp
  {f1d093d7-31f9-4f15-89f2-57a97e2085d4}; ! Name of Object 1

