
OS:Version,
  {79135d8b-4292-4846-ba8b-8e5d2bd6ae33}, ! Handle
  0.9.3;                                  ! Version Identifier

OS:SizingPeriod:DesignDay,
  {e5703811-2abf-4009-8a67-ce3e199d4edf}, ! Handle
  Meridian Ann Clg .4% Condns WB=>MDB,    ! Name
  32,                                     ! Maximum Dry-Bulb Temperature {C}
  11.4,                                   ! Daily Dry-Bulb Temperature Range {deltaC}
  26.5,                                   ! Humidity Indicating Conditions at Maximum Dry-Bulb {BasedOnField A3}
  100201,                                 ! Barometric Pressure {Pa}
  3.2,                                    ! Wind Speed {m/s}
  0,                                      ! Wind Direction {deg}
  0,                                      ! Sky Clearness
  0,                                      ! Rain Indicator
  0,                                      ! Snow Indicator
  21,                                     ! Day of Month
  7,                                      ! Month
  SummerDesignDay,                        ! Day Type
  0,                                      ! Daylight Saving Time Indicator
  Wetbulb,                                ! Humidity Indicating Type
  ,                                       ! Humidity Indicating Day Schedule Name
  DefaultMultipliers,                     ! Dry-Bulb Temperature Range Modifier Type
  ,                                       ! Dry-Bulb Temperature Range Modifier Schedule Name
  ASHRAETau,                              ! Solar Model Indicator
  ,                                       ! Beam Solar Day Schedule Name
  ,                                       ! Diffuse Solar Day Schedule Name
  0.552,                                  ! ASHRAE Taub {dimensionless}
  1.818;                                  ! ASHRAE Taud {dimensionless}

OS:ComponentData,
  {3016409f-0729-42d6-822c-a1d116c32afe}, ! Handle
  Component Data 1,                       ! Name
  {38e7d1eb-f1c3-4d62-8e42-edef5820e0f7}, ! UUID
  {bb907087-f9f7-4a03-ba81-a7afc1d0e5b8}, ! Version UUID
  1366308662,                             ! Creation Timestamp
  1366308662,                             ! Version Timestamp
  {e5703811-2abf-4009-8a67-ce3e199d4edf}; ! Name of Object 1

