
OS:Version,
  {3821ab93-af3b-4e7d-98a3-973673541a2c}, ! Handle
  0.9.3;                                  ! Version Identifier

OS:SizingPeriod:DesignDay,
  {bf587692-2225-49ff-93fb-e0a2a6ee989d}, ! Handle
  Newark Ann Clg 2% Condns DP=>MDB,       ! Name
  26.6,                                   ! Maximum Dry-Bulb Temperature {C}
  8.9,                                    ! Daily Dry-Bulb Temperature Range {deltaC}
  22.4,                                   ! Humidity Indicating Conditions at Maximum Dry-Bulb {BasedOnField A3}
  101217,                                 ! Barometric Pressure {Pa}
  5.8,                                    ! Wind Speed {m/s}
  250,                                    ! Wind Direction {deg}
  0,                                      ! Sky Clearness
  0,                                      ! Rain Indicator
  0,                                      ! Snow Indicator
  21,                                     ! Day of Month
  7,                                      ! Month
  SummerDesignDay,                        ! Day Type
  0,                                      ! Daylight Saving Time Indicator
  Dewpoint,                               ! Humidity Indicating Type
  ,                                       ! Humidity Indicating Day Schedule Name
  DefaultMultipliers,                     ! Dry-Bulb Temperature Range Modifier Type
  ,                                       ! Dry-Bulb Temperature Range Modifier Schedule Name
  ASHRAETau,                              ! Solar Model Indicator
  ,                                       ! Beam Solar Day Schedule Name
  ,                                       ! Diffuse Solar Day Schedule Name
  0.528,                                  ! ASHRAE Taub {dimensionless}
  1.831;                                  ! ASHRAE Taud {dimensionless}

OS:ComponentData,
  {1d361c2e-e4b0-4de2-9a3d-8be8aaa41cf7}, ! Handle
  Component Data 1,                       ! Name
  {661f3577-68dd-44c5-9b0c-5ddd8dd3a207}, ! UUID
  {7aeb3a6f-50ad-47d4-903b-6c23f55b32b9}, ! Version UUID
  1366309333,                             ! Creation Timestamp
  1366309333,                             ! Version Timestamp
  {bf587692-2225-49ff-93fb-e0a2a6ee989d}; ! Name of Object 1

