
OS:Version,
  {c0cfe2c5-87dc-4983-83fe-71a1e7d2c7c7}, ! Handle
  0.9.3;                                  ! Version Identifier

OS:SizingPeriod:DesignDay,
  {24b744d5-af8b-4960-904d-59883b6cf70b}, ! Handle
  Springfield Ann Clg 2% Condns Enth=>MDB, ! Name
  29.5,                                   ! Maximum Dry-Bulb Temperature {C}
  10.7,                                   ! Daily Dry-Bulb Temperature Range {deltaC}
  75400,                                  ! Humidity Indicating Conditions at Maximum Dry-Bulb {BasedOnField A3}
  99099,                                  ! Barometric Pressure {Pa}
  4.6,                                    ! Wind Speed {m/s}
  230,                                    ! Wind Direction {deg}
  0,                                      ! Sky Clearness
  0,                                      ! Rain Indicator
  0,                                      ! Snow Indicator
  21,                                     ! Day of Month
  7,                                      ! Month
  SummerDesignDay,                        ! Day Type
  0,                                      ! Daylight Saving Time Indicator
  Enthalpy,                               ! Humidity Indicating Type
  ,                                       ! Humidity Indicating Day Schedule Name
  DefaultMultipliers,                     ! Dry-Bulb Temperature Range Modifier Type
  ,                                       ! Dry-Bulb Temperature Range Modifier Schedule Name
  ASHRAETau,                              ! Solar Model Indicator
  ,                                       ! Beam Solar Day Schedule Name
  ,                                       ! Diffuse Solar Day Schedule Name
  0.463,                                  ! ASHRAE Taub {dimensionless}
  2.022;                                  ! ASHRAE Taud {dimensionless}

OS:ComponentData,
  {bfd8a71a-d9de-4da1-9e08-71048ecc949c}, ! Handle
  Component Data 1,                       ! Name
  {3870b0ec-7a4e-44f6-9768-9913afdf0204}, ! UUID
  {85de37f7-6ef7-42bb-8002-5609b6600d05}, ! Version UUID
  1366307402,                             ! Creation Timestamp
  1366307402,                             ! Version Timestamp
  {24b744d5-af8b-4960-904d-59883b6cf70b}; ! Name of Object 1

