
OS:Version,
  {4a23f351-39ba-4aca-a8de-2d0cdca5f56c}, ! Handle
  0.9.3;                                  ! Version Identifier

OS:SizingPeriod:DesignDay,
  {0feec45c-33c3-45a5-aaed-33b0d468082e}, ! Handle
  New York Laguardia Arpt Ann Htg Wind 99.6% Condns WS=>MCDB, ! Name
  0,                                      ! Maximum Dry-Bulb Temperature {C}
  0,                                      ! Daily Dry-Bulb Temperature Range {deltaC}
  0,                                      ! Humidity Indicating Conditions at Maximum Dry-Bulb {BasedOnField A3}
  101289,                                 ! Barometric Pressure {Pa}
  14.4,                                   ! Wind Speed {m/s}
  320,                                    ! Wind Direction {deg}
  0,                                      ! Sky Clearness
  0,                                      ! Rain Indicator
  0,                                      ! Snow Indicator
  21,                                     ! Day of Month
  1,                                      ! Month
  WinterDesignDay,                        ! Day Type
  0,                                      ! Daylight Saving Time Indicator
  Wetbulb,                                ! Humidity Indicating Type
  ,                                       ! Humidity Indicating Day Schedule Name
  DefaultMultipliers,                     ! Dry-Bulb Temperature Range Modifier Type
  ,                                       ! Dry-Bulb Temperature Range Modifier Schedule Name
  ASHRAEClearSky;                         ! Solar Model Indicator

OS:ComponentData,
  {9260c07c-44e7-4075-9175-682db8c506e0}, ! Handle
  Component Data 1,                       ! Name
  {3b8ff4a1-e6f4-42b9-999f-2cf6f129e0f0}, ! UUID
  {6de9255a-2925-471f-8260-48e03a19390a}, ! Version UUID
  1366309674,                             ! Creation Timestamp
  1366309674,                             ! Version Timestamp
  {0feec45c-33c3-45a5-aaed-33b0d468082e}; ! Name of Object 1

