
OS:Version,
  {a24e8d02-aeb3-47c7-81b4-546904400e56}, ! Handle
  0.9.3;                                  ! Version Identifier

OS:SizingPeriod:DesignDay,
  {d735f9f2-a7ab-4d10-ae35-71d21a1128bc}, ! Handle
  SAINT_CLOUD Ann Clg 2% Condns DP=>MDB,  ! Name
  25.7,                                   ! Maximum Dry-Bulb Temperature {C}
  12.3,                                   ! Daily Dry-Bulb Temperature Range {deltaC}
  20.7,                                   ! Humidity Indicating Conditions at Maximum Dry-Bulb {BasedOnField A3}
  97621,                                  ! Barometric Pressure {Pa}
  5.1,                                    ! Wind Speed {m/s}
  180,                                    ! Wind Direction {deg}
  0,                                      ! Sky Clearness
  0,                                      ! Rain Indicator
  0,                                      ! Snow Indicator
  21,                                     ! Day of Month
  7,                                      ! Month
  SummerDesignDay,                        ! Day Type
  0,                                      ! Daylight Saving Time Indicator
  Dewpoint,                               ! Humidity Indicating Type
  ,                                       ! Humidity Indicating Day Schedule Name
  DefaultMultipliers,                     ! Dry-Bulb Temperature Range Modifier Type
  ,                                       ! Dry-Bulb Temperature Range Modifier Schedule Name
  ASHRAETau,                              ! Solar Model Indicator
  ,                                       ! Beam Solar Day Schedule Name
  ,                                       ! Diffuse Solar Day Schedule Name
  0.405,                                  ! ASHRAE Taub {dimensionless}
  2.216;                                  ! ASHRAE Taud {dimensionless}

OS:ComponentData,
  {de56367a-6617-4b78-b50e-b5b8f2973757}, ! Handle
  Component Data 1,                       ! Name
  {fa12b77e-df20-4a0b-9bf6-20036a84a0bd}, ! UUID
  {6e80e473-37de-4698-a48c-1c2e4e438c8e}, ! Version UUID
  1366308411,                             ! Creation Timestamp
  1366308411,                             ! Version Timestamp
  {d735f9f2-a7ab-4d10-ae35-71d21a1128bc}; ! Name of Object 1

