
OS:Version,
  {a10947cc-56e1-4020-8e43-b2db5f3a20e7}, ! Handle
  0.9.3;                                  ! Version Identifier

OS:SizingPeriod:DesignDay,
  {5fbcbf31-74ab-4224-aa22-31a219aeca0a}, ! Handle
  Martinsville Ann Htg Wind 99.6% Condns WS=>MCDB, ! Name
  1.3,                                    ! Maximum Dry-Bulb Temperature {C}
  0,                                      ! Daily Dry-Bulb Temperature Range {deltaC}
  1.3,                                    ! Humidity Indicating Conditions at Maximum Dry-Bulb {BasedOnField A3}
  97924,                                  ! Barometric Pressure {Pa}
  10,                                     ! Wind Speed {m/s}
  320,                                    ! Wind Direction {deg}
  0,                                      ! Sky Clearness
  0,                                      ! Rain Indicator
  0,                                      ! Snow Indicator
  21,                                     ! Day of Month
  1,                                      ! Month
  WinterDesignDay,                        ! Day Type
  0,                                      ! Daylight Saving Time Indicator
  Wetbulb,                                ! Humidity Indicating Type
  ,                                       ! Humidity Indicating Day Schedule Name
  DefaultMultipliers,                     ! Dry-Bulb Temperature Range Modifier Type
  ,                                       ! Dry-Bulb Temperature Range Modifier Schedule Name
  ASHRAEClearSky;                         ! Solar Model Indicator

OS:ComponentData,
  {3492bd93-c282-42ca-bf4b-9b02165425bd}, ! Handle
  Component Data 1,                       ! Name
  {0b0f3ebb-f202-4f7e-a991-29608087a553}, ! UUID
  {03d141d1-cdfb-4222-8bfd-cf56bd0723b1}, ! Version UUID
  1366311105,                             ! Creation Timestamp
  1366311105,                             ! Version Timestamp
  {5fbcbf31-74ab-4224-aa22-31a219aeca0a}; ! Name of Object 1

