
OS:Version,
  {58ebcae1-4d81-443d-9832-bc9f67c4f0b2}, ! Handle
  0.9.3;                                  ! Version Identifier

OS:SizingPeriod:DesignDay,
  {ca520833-5a9e-448c-9a1a-d6f871637666}, ! Handle
  Traverse City Cherry Capital Ann Clg 1% Condns WB=>MDB, ! Name
  27.7,                                   ! Maximum Dry-Bulb Temperature {C}
  11.8,                                   ! Daily Dry-Bulb Temperature Range {deltaC}
  22.7,                                   ! Humidity Indicating Conditions at Maximum Dry-Bulb {BasedOnField A3}
  99087,                                  ! Barometric Pressure {Pa}
  5.1,                                    ! Wind Speed {m/s}
  230,                                    ! Wind Direction {deg}
  0,                                      ! Sky Clearness
  0,                                      ! Rain Indicator
  0,                                      ! Snow Indicator
  21,                                     ! Day of Month
  7,                                      ! Month
  SummerDesignDay,                        ! Day Type
  0,                                      ! Daylight Saving Time Indicator
  Wetbulb,                                ! Humidity Indicating Type
  ,                                       ! Humidity Indicating Day Schedule Name
  DefaultMultipliers,                     ! Dry-Bulb Temperature Range Modifier Type
  ,                                       ! Dry-Bulb Temperature Range Modifier Schedule Name
  ASHRAETau,                              ! Solar Model Indicator
  ,                                       ! Beam Solar Day Schedule Name
  ,                                       ! Diffuse Solar Day Schedule Name
  0.422,                                  ! ASHRAE Taub {dimensionless}
  2.177;                                  ! ASHRAE Taud {dimensionless}

OS:ComponentData,
  {25e5e24a-e21f-472d-a337-a26065e0c8b4}, ! Handle
  Component Data 1,                       ! Name
  {2347abc8-d969-4eca-aee7-848d9a202cb0}, ! UUID
  {51fd35b8-9bab-49b2-951b-90bf0b28562c}, ! Version UUID
  1366308125,                             ! Creation Timestamp
  1366308125,                             ! Version Timestamp
  {ca520833-5a9e-448c-9a1a-d6f871637666}; ! Name of Object 1

