
OS:Version,
  {56cadda1-659b-454d-a563-4c88df1b1c68}, ! Handle
  0.9.3;                                  ! Version Identifier

OS:SizingPeriod:DesignDay,
  {86d31503-83ac-40da-8bbe-adfa01978e1d}, ! Handle
  Mc Gregor  Awos Ann Clg 2% Condns DP=>MDB, ! Name
  27.8,                                   ! Maximum Dry-Bulb Temperature {C}
  12.2,                                   ! Daily Dry-Bulb Temperature Range {deltaC}
  22.9,                                   ! Humidity Indicating Conditions at Maximum Dry-Bulb {BasedOnField A3}
  99181,                                  ! Barometric Pressure {Pa}
  4.4,                                    ! Wind Speed {m/s}
  170,                                    ! Wind Direction {deg}
  0,                                      ! Sky Clearness
  0,                                      ! Rain Indicator
  0,                                      ! Snow Indicator
  21,                                     ! Day of Month
  7,                                      ! Month
  SummerDesignDay,                        ! Day Type
  0,                                      ! Daylight Saving Time Indicator
  Dewpoint,                               ! Humidity Indicating Type
  ,                                       ! Humidity Indicating Day Schedule Name
  DefaultMultipliers,                     ! Dry-Bulb Temperature Range Modifier Type
  ,                                       ! Dry-Bulb Temperature Range Modifier Schedule Name
  ASHRAETau,                              ! Solar Model Indicator
  ,                                       ! Beam Solar Day Schedule Name
  ,                                       ! Diffuse Solar Day Schedule Name
  0.456,                                  ! ASHRAE Taub {dimensionless}
  2.109;                                  ! ASHRAE Taud {dimensionless}

OS:ComponentData,
  {121d745c-3c18-4ca5-b254-29f6baa5b144}, ! Handle
  Component Data 1,                       ! Name
  {ab6abb5b-34e1-430f-a5ed-9ae2500a29cd}, ! UUID
  {1e6335fb-8452-480c-a358-351c66357d0f}, ! Version UUID
  1366310824,                             ! Creation Timestamp
  1366310824,                             ! Version Timestamp
  {86d31503-83ac-40da-8bbe-adfa01978e1d}; ! Name of Object 1

