
OS:Version,
  {569acb60-571b-4da0-a1fc-0d37b65d80c4}, ! Handle
  0.9.3;                                  ! Version Identifier

OS:SizingPeriod:DesignDay,
  {e75a86ad-ec6d-4c07-99d4-4c78d4baddcd}, ! Handle
  Modesto City County Ap Ann Clg 2% Condns Enth=>MDB, ! Name
  33.6,                                   ! Maximum Dry-Bulb Temperature {C}
  16.7,                                   ! Daily Dry-Bulb Temperature Range {deltaC}
  59600,                                  ! Humidity Indicating Conditions at Maximum Dry-Bulb {BasedOnField A3}
  100965,                                 ! Barometric Pressure {Pa}
  4.5,                                    ! Wind Speed {m/s}
  320,                                    ! Wind Direction {deg}
  0,                                      ! Sky Clearness
  0,                                      ! Rain Indicator
  0,                                      ! Snow Indicator
  21,                                     ! Day of Month
  7,                                      ! Month
  SummerDesignDay,                        ! Day Type
  0,                                      ! Daylight Saving Time Indicator
  Enthalpy,                               ! Humidity Indicating Type
  ,                                       ! Humidity Indicating Day Schedule Name
  DefaultMultipliers,                     ! Dry-Bulb Temperature Range Modifier Type
  ,                                       ! Dry-Bulb Temperature Range Modifier Schedule Name
  ASHRAETau,                              ! Solar Model Indicator
  ,                                       ! Beam Solar Day Schedule Name
  ,                                       ! Diffuse Solar Day Schedule Name
  0.392,                                  ! ASHRAE Taub {dimensionless}
  2.306;                                  ! ASHRAE Taud {dimensionless}

OS:ComponentData,
  {b20e71e6-e65d-47fe-9f1f-2f59e517f509}, ! Handle
  Component Data 1,                       ! Name
  {1a9b3635-ca41-4e7f-b64b-e7bd66e1b5d2}, ! UUID
  {2d812279-d7a7-4dd2-acb8-37550603ecb0}, ! Version UUID
  1366306491,                             ! Creation Timestamp
  1366306491,                             ! Version Timestamp
  {e75a86ad-ec6d-4c07-99d4-4c78d4baddcd}; ! Name of Object 1

