
OS:Version,
  {34385374-b546-4ba2-9da1-ef31dc2c271a}, ! Handle
  0.9.3;                                  ! Version Identifier

OS:SizingPeriod:DesignDay,
  {7c49d524-0325-44d2-ba08-2a711ebb2c0a}, ! Handle
  Wheaton Ndb  Awos Ann Clg .4% Condns Enth=>MDB, ! Name
  29.8,                                   ! Maximum Dry-Bulb Temperature {C}
  11,                                     ! Daily Dry-Bulb Temperature Range {deltaC}
  76200,                                  ! Humidity Indicating Conditions at Maximum Dry-Bulb {BasedOnField A3}
  97621,                                  ! Barometric Pressure {Pa}
  5.4,                                    ! Wind Speed {m/s}
  150,                                    ! Wind Direction {deg}
  0,                                      ! Sky Clearness
  0,                                      ! Rain Indicator
  0,                                      ! Snow Indicator
  21,                                     ! Day of Month
  7,                                      ! Month
  SummerDesignDay,                        ! Day Type
  0,                                      ! Daylight Saving Time Indicator
  Enthalpy,                               ! Humidity Indicating Type
  ,                                       ! Humidity Indicating Day Schedule Name
  DefaultMultipliers,                     ! Dry-Bulb Temperature Range Modifier Type
  ,                                       ! Dry-Bulb Temperature Range Modifier Schedule Name
  ASHRAETau,                              ! Solar Model Indicator
  ,                                       ! Beam Solar Day Schedule Name
  ,                                       ! Diffuse Solar Day Schedule Name
  0.394,                                  ! ASHRAE Taub {dimensionless}
  2.265;                                  ! ASHRAE Taud {dimensionless}

OS:ComponentData,
  {a35f4493-3049-4de0-a99f-d0c7b0900882}, ! Handle
  Component Data 1,                       ! Name
  {81b9e5d0-5a34-4732-b9ba-ec1f27c7499c}, ! UUID
  {1a7aaf1f-0d67-42b8-973e-23a31f77d023}, ! Version UUID
  1366308453,                             ! Creation Timestamp
  1366308453,                             ! Version Timestamp
  {7c49d524-0325-44d2-ba08-2a711ebb2c0a}; ! Name of Object 1

