
OS:Version,
  {ace0f94f-9877-4b6c-9fdd-9c46e5c29397}, ! Handle
  0.9.3;                                  ! Version Identifier

OS:SizingPeriod:DesignDay,
  {043ff453-69a5-4229-b0e9-65d7c9f16aec}, ! Handle
  New Orleans Alvin Callender F Ann Htg 99.6% Condns DB, ! Name
  -1.1,                                   ! Maximum Dry-Bulb Temperature {C}
  0,                                      ! Daily Dry-Bulb Temperature Range {deltaC}
  -1.1,                                   ! Humidity Indicating Conditions at Maximum Dry-Bulb {BasedOnField A3}
  101301,                                 ! Barometric Pressure {Pa}
  2,                                      ! Wind Speed {m/s}
  20,                                     ! Wind Direction {deg}
  0,                                      ! Sky Clearness
  0,                                      ! Rain Indicator
  0,                                      ! Snow Indicator
  21,                                     ! Day of Month
  1,                                      ! Month
  WinterDesignDay,                        ! Day Type
  0,                                      ! Daylight Saving Time Indicator
  Wetbulb,                                ! Humidity Indicating Type
  ,                                       ! Humidity Indicating Day Schedule Name
  DefaultMultipliers,                     ! Dry-Bulb Temperature Range Modifier Type
  ,                                       ! Dry-Bulb Temperature Range Modifier Schedule Name
  ASHRAEClearSky;                         ! Solar Model Indicator

OS:ComponentData,
  {8ffef2ab-156a-4783-b27f-4a901208ff06}, ! Handle
  Component Data 1,                       ! Name
  {9f3965d1-471e-42ce-8631-836ece79ab4a}, ! UUID
  {57cd1682-7a16-429e-b7a6-c1c0a8596ba3}, ! Version UUID
  1366307739,                             ! Creation Timestamp
  1366307739,                             ! Version Timestamp
  {043ff453-69a5-4229-b0e9-65d7c9f16aec}; ! Name of Object 1

