
OS:Version,
  {557d67ec-00d6-44db-a10a-c162f223ab7c}, ! Handle
  0.9.3;                                  ! Version Identifier

OS:SizingPeriod:DesignDay,
  {8301f411-9476-41b8-83a8-4e50ca37c8c7}, ! Handle
  Thief River Awos Ann Clg 1% Condns DB=>MWB, ! Name
  27.9,                                   ! Maximum Dry-Bulb Temperature {C}
  10.3,                                   ! Daily Dry-Bulb Temperature Range {deltaC}
  20.2,                                   ! Humidity Indicating Conditions at Maximum Dry-Bulb {BasedOnField A3}
  97307,                                  ! Barometric Pressure {Pa}
  5.7,                                    ! Wind Speed {m/s}
  200,                                    ! Wind Direction {deg}
  0,                                      ! Sky Clearness
  0,                                      ! Rain Indicator
  0,                                      ! Snow Indicator
  21,                                     ! Day of Month
  7,                                      ! Month
  SummerDesignDay,                        ! Day Type
  0,                                      ! Daylight Saving Time Indicator
  Wetbulb,                                ! Humidity Indicating Type
  ,                                       ! Humidity Indicating Day Schedule Name
  DefaultMultipliers,                     ! Dry-Bulb Temperature Range Modifier Type
  ,                                       ! Dry-Bulb Temperature Range Modifier Schedule Name
  ASHRAETau,                              ! Solar Model Indicator
  ,                                       ! Beam Solar Day Schedule Name
  ,                                       ! Diffuse Solar Day Schedule Name
  0.394,                                  ! ASHRAE Taub {dimensionless}
  2.258;                                  ! ASHRAE Taud {dimensionless}

OS:ComponentData,
  {a9a7483c-8269-4f8b-911b-8cde11b07c7a}, ! Handle
  Component Data 1,                       ! Name
  {56cba17f-f7bd-44a7-b416-7fd89c51b8e8}, ! UUID
  {7e0998ab-a432-45d9-b785-45a2b1b18fea}, ! Version UUID
  1366308440,                             ! Creation Timestamp
  1366308440,                             ! Version Timestamp
  {8301f411-9476-41b8-83a8-4e50ca37c8c7}; ! Name of Object 1

