
OS:Version,
  {f771b9e4-940b-4bdf-81f1-a6b3d845acd2}, ! Handle
  0.9.3;                                  ! Version Identifier

OS:SizingPeriod:DesignDay,
  {a42ef6f5-ae34-457f-88fa-710db73e5039}, ! Handle
  Williston Sloulin Intl Ap Ann Htg Wind 99% Condns WS=>MCDB, ! Name
  -5.6,                                   ! Maximum Dry-Bulb Temperature {C}
  0,                                      ! Daily Dry-Bulb Temperature Range {deltaC}
  -5.6,                                   ! Humidity Indicating Conditions at Maximum Dry-Bulb {BasedOnField A3}
  94549,                                  ! Barometric Pressure {Pa}
  12,                                     ! Wind Speed {m/s}
  210,                                    ! Wind Direction {deg}
  0,                                      ! Sky Clearness
  0,                                      ! Rain Indicator
  0,                                      ! Snow Indicator
  21,                                     ! Day of Month
  1,                                      ! Month
  WinterDesignDay,                        ! Day Type
  0,                                      ! Daylight Saving Time Indicator
  Wetbulb,                                ! Humidity Indicating Type
  ,                                       ! Humidity Indicating Day Schedule Name
  DefaultMultipliers,                     ! Dry-Bulb Temperature Range Modifier Type
  ,                                       ! Dry-Bulb Temperature Range Modifier Schedule Name
  ASHRAEClearSky;                         ! Solar Model Indicator

OS:ComponentData,
  {d622cc3f-05b9-461e-8bf6-50b035003d3d}, ! Handle
  Component Data 1,                       ! Name
  {4e075986-4151-40e2-a218-bf349b644f4e}, ! UUID
  {38f3e290-4cec-487a-8ebb-c06178ce7aa7}, ! Version UUID
  1366309071,                             ! Creation Timestamp
  1366309071,                             ! Version Timestamp
  {a42ef6f5-ae34-457f-88fa-710db73e5039}; ! Name of Object 1

