
OS:Version,
  {15e415a7-89be-416f-b61d-e3c81d623101}, ! Handle
  0.9.3;                                  ! Version Identifier

OS:SizingPeriod:DesignDay,
  {fbca5afa-0c1b-4571-91a9-55c9208359d5}, ! Handle
  Watertown Ap Ann Clg .4% Condns Enth=>MDB, ! Name
  28,                                     ! Maximum Dry-Bulb Temperature {C}
  10.8,                                   ! Daily Dry-Bulb Temperature Range {deltaC}
  70900,                                  ! Humidity Indicating Conditions at Maximum Dry-Bulb {BasedOnField A3}
  100165,                                 ! Barometric Pressure {Pa}
  4.8,                                    ! Wind Speed {m/s}
  250,                                    ! Wind Direction {deg}
  0,                                      ! Sky Clearness
  0,                                      ! Rain Indicator
  0,                                      ! Snow Indicator
  21,                                     ! Day of Month
  7,                                      ! Month
  SummerDesignDay,                        ! Day Type
  0,                                      ! Daylight Saving Time Indicator
  Enthalpy,                               ! Humidity Indicating Type
  ,                                       ! Humidity Indicating Day Schedule Name
  DefaultMultipliers,                     ! Dry-Bulb Temperature Range Modifier Type
  ,                                       ! Dry-Bulb Temperature Range Modifier Schedule Name
  ASHRAETau,                              ! Solar Model Indicator
  ,                                       ! Beam Solar Day Schedule Name
  ,                                       ! Diffuse Solar Day Schedule Name
  0.457,                                  ! ASHRAE Taub {dimensionless}
  2.015;                                  ! ASHRAE Taud {dimensionless}

OS:ComponentData,
  {5f057776-e865-48e1-854d-81602dfcc111}, ! Handle
  Component Data 1,                       ! Name
  {2d865d34-ba80-4787-9be9-4d1d0d6e4437}, ! UUID
  {66053bf4-6d2c-4b49-a9b1-743101426dc9}, ! Version UUID
  1366309750,                             ! Creation Timestamp
  1366309750,                             ! Version Timestamp
  {fbca5afa-0c1b-4571-91a9-55c9208359d5}; ! Name of Object 1

