
OS:Version,
  {3be17e03-595e-4123-9596-e75412d82bc1}, ! Handle
  0.9.3;                                  ! Version Identifier

OS:SizingPeriod:DesignDay,
  {bb6257d8-b299-4112-944a-f02237b184c6}, ! Handle
  Providence Ann Clg 2% Condns WB=>MDB,   ! Name
  26.3,                                   ! Maximum Dry-Bulb Temperature {C}
  9.6,                                    ! Daily Dry-Bulb Temperature Range {deltaC}
  22.9,                                   ! Humidity Indicating Conditions at Maximum Dry-Bulb {BasedOnField A3}
  101097,                                 ! Barometric Pressure {Pa}
  5.5,                                    ! Wind Speed {m/s}
  280,                                    ! Wind Direction {deg}
  0,                                      ! Sky Clearness
  0,                                      ! Rain Indicator
  0,                                      ! Snow Indicator
  21,                                     ! Day of Month
  7,                                      ! Month
  SummerDesignDay,                        ! Day Type
  0,                                      ! Daylight Saving Time Indicator
  Wetbulb,                                ! Humidity Indicating Type
  ,                                       ! Humidity Indicating Day Schedule Name
  DefaultMultipliers,                     ! Dry-Bulb Temperature Range Modifier Type
  ,                                       ! Dry-Bulb Temperature Range Modifier Schedule Name
  ASHRAETau,                              ! Solar Model Indicator
  ,                                       ! Beam Solar Day Schedule Name
  ,                                       ! Diffuse Solar Day Schedule Name
  0.507,                                  ! ASHRAE Taub {dimensionless}
  1.885;                                  ! ASHRAE Taud {dimensionless}

OS:ComponentData,
  {ecedf456-7e57-46b3-afc0-b2e6930a8164}, ! Handle
  Component Data 1,                       ! Name
  {2a2244b3-2356-44aa-b292-46a7d33cf218}, ! UUID
  {0e6347e3-9722-4ad8-917c-6197b8402aa3}, ! Version UUID
  1366310298,                             ! Creation Timestamp
  1366310298,                             ! Version Timestamp
  {bb6257d8-b299-4112-944a-f02237b184c6}; ! Name of Object 1

