
OS:Version,
  {f22640ce-8499-4076-8ab4-2683fb05b559}, ! Handle
  0.9.3;                                  ! Version Identifier

OS:SizingPeriod:DesignDay,
  {0cd4e069-6a3c-49e2-be00-ae686673110c}, ! Handle
  Yakima Ann Clg 1% Condns Enth=>MDB,     ! Name
  31.5,                                   ! Maximum Dry-Bulb Temperature {C}
  17.9,                                   ! Daily Dry-Bulb Temperature Range {deltaC}
  55700,                                  ! Humidity Indicating Conditions at Maximum Dry-Bulb {BasedOnField A3}
  97481,                                  ! Barometric Pressure {Pa}
  2.7,                                    ! Wind Speed {m/s}
  100,                                    ! Wind Direction {deg}
  0,                                      ! Sky Clearness
  0,                                      ! Rain Indicator
  0,                                      ! Snow Indicator
  21,                                     ! Day of Month
  7,                                      ! Month
  SummerDesignDay,                        ! Day Type
  0,                                      ! Daylight Saving Time Indicator
  Enthalpy,                               ! Humidity Indicating Type
  ,                                       ! Humidity Indicating Day Schedule Name
  DefaultMultipliers,                     ! Dry-Bulb Temperature Range Modifier Type
  ,                                       ! Dry-Bulb Temperature Range Modifier Schedule Name
  ASHRAETau,                              ! Solar Model Indicator
  ,                                       ! Beam Solar Day Schedule Name
  ,                                       ! Diffuse Solar Day Schedule Name
  0.395,                                  ! ASHRAE Taub {dimensionless}
  2.249;                                  ! ASHRAE Taud {dimensionless}

OS:ComponentData,
  {1b14edff-ad91-4d7e-8882-5d625a7a5331}, ! Handle
  Component Data 1,                       ! Name
  {832883d0-66b8-4957-ab62-d09e8612b286}, ! UUID
  {aa58736c-3780-43e2-86a2-980d8c0bf0a1}, ! Version UUID
  1366311449,                             ! Creation Timestamp
  1366311449,                             ! Version Timestamp
  {0cd4e069-6a3c-49e2-be00-ae686673110c}; ! Name of Object 1

