
OS:Version,
  {3529569f-e2f1-4d6a-9f02-b426736a4671}, ! Handle
  0.9.3;                                  ! Version Identifier

OS:SizingPeriod:DesignDay,
  {3eff8dbf-512b-4ee4-bf38-bb3e9d2cd741}, ! Handle
  Spokane International Ap  Che Ann Clg .4% Condns DB=>MWB, ! Name
  33.8,                                   ! Maximum Dry-Bulb Temperature {C}
  14.6,                                   ! Daily Dry-Bulb Temperature Range {deltaC}
  17.2,                                   ! Humidity Indicating Conditions at Maximum Dry-Bulb {BasedOnField A3}
  92332,                                  ! Barometric Pressure {Pa}
  4.1,                                    ! Wind Speed {m/s}
  240,                                    ! Wind Direction {deg}
  0,                                      ! Sky Clearness
  0,                                      ! Rain Indicator
  0,                                      ! Snow Indicator
  21,                                     ! Day of Month
  7,                                      ! Month
  SummerDesignDay,                        ! Day Type
  0,                                      ! Daylight Saving Time Indicator
  Wetbulb,                                ! Humidity Indicating Type
  ,                                       ! Humidity Indicating Day Schedule Name
  DefaultMultipliers,                     ! Dry-Bulb Temperature Range Modifier Type
  ,                                       ! Dry-Bulb Temperature Range Modifier Schedule Name
  ASHRAETau,                              ! Solar Model Indicator
  ,                                       ! Beam Solar Day Schedule Name
  ,                                       ! Diffuse Solar Day Schedule Name
  0.354,                                  ! ASHRAE Taub {dimensionless}
  2.385;                                  ! ASHRAE Taud {dimensionless}

OS:ComponentData,
  {141ee3e5-ed58-42ed-9a19-c62c7353fbe8}, ! Handle
  Component Data 1,                       ! Name
  {1b0ac4b0-09bd-43e9-bdac-2d8c8cb7fa41}, ! UUID
  {7aa835f8-45e8-489d-a233-c41380da3879}, ! Version UUID
  1366311395,                             ! Creation Timestamp
  1366311395,                             ! Version Timestamp
  {3eff8dbf-512b-4ee4-bf38-bb3e9d2cd741}; ! Name of Object 1

