
OS:Version,
  {5a017338-4b0c-43ea-846a-bea1fae328d1}, ! Handle
  0.9.3;                                  ! Version Identifier

OS:SizingPeriod:DesignDay,
  {3c4f7ff6-b0d9-41f6-9a85-cf4e5ea4b80b}, ! Handle
  Mccomb Pike County Ap Ann Clg .4% Condns Enth=>MDB, ! Name
  31.6,                                   ! Maximum Dry-Bulb Temperature {C}
  10.8,                                   ! Daily Dry-Bulb Temperature Range {deltaC}
  82500,                                  ! Humidity Indicating Conditions at Maximum Dry-Bulb {BasedOnField A3}
  99820,                                  ! Barometric Pressure {Pa}
  2.9,                                    ! Wind Speed {m/s}
  250,                                    ! Wind Direction {deg}
  0,                                      ! Sky Clearness
  0,                                      ! Rain Indicator
  0,                                      ! Snow Indicator
  21,                                     ! Day of Month
  7,                                      ! Month
  SummerDesignDay,                        ! Day Type
  0,                                      ! Daylight Saving Time Indicator
  Enthalpy,                               ! Humidity Indicating Type
  ,                                       ! Humidity Indicating Day Schedule Name
  DefaultMultipliers,                     ! Dry-Bulb Temperature Range Modifier Type
  ,                                       ! Dry-Bulb Temperature Range Modifier Schedule Name
  ASHRAETau,                              ! Solar Model Indicator
  ,                                       ! Beam Solar Day Schedule Name
  ,                                       ! Diffuse Solar Day Schedule Name
  0.539,                                  ! ASHRAE Taub {dimensionless}
  1.852;                                  ! ASHRAE Taud {dimensionless}

OS:ComponentData,
  {a2dd1951-afd4-4a50-9d5d-f011a010e836}, ! Handle
  Component Data 1,                       ! Name
  {bbc24b89-38c6-46d8-b21c-cbcf44fea193}, ! UUID
  {85dceaca-5f5c-4171-82ed-c9e80d27cc14}, ! Version UUID
  1366308657,                             ! Creation Timestamp
  1366308657,                             ! Version Timestamp
  {3c4f7ff6-b0d9-41f6-9a85-cf4e5ea4b80b}; ! Name of Object 1

