
OS:Version,
  {456cdb65-6036-49e8-aaaa-887fa95abebf}, ! Handle
  0.9.3;                                  ! Version Identifier

OS:SizingPeriod:DesignDay,
  {d52a5223-57fe-4336-ac21-6dbd219cbd7d}, ! Handle
  NORTH_PLATTE Ann Hum_n 99.6% Condns DP=>MCDB, ! Name
  -21.5,                                  ! Maximum Dry-Bulb Temperature {C}
  0,                                      ! Daily Dry-Bulb Temperature Range {deltaC}
  -26.2,                                  ! Humidity Indicating Conditions at Maximum Dry-Bulb {BasedOnField A3}
  91533,                                  ! Barometric Pressure {Pa}
  3.6,                                    ! Wind Speed {m/s}
  320,                                    ! Wind Direction {deg}
  0,                                      ! Sky Clearness
  0,                                      ! Rain Indicator
  0,                                      ! Snow Indicator
  21,                                     ! Day of Month
  1,                                      ! Month
  WinterDesignDay,                        ! Day Type
  0,                                      ! Daylight Saving Time Indicator
  Dewpoint,                               ! Humidity Indicating Type
  ,                                       ! Humidity Indicating Day Schedule Name
  DefaultMultipliers,                     ! Dry-Bulb Temperature Range Modifier Type
  ,                                       ! Dry-Bulb Temperature Range Modifier Schedule Name
  ASHRAEClearSky;                         ! Solar Model Indicator

OS:ComponentData,
  {f32a68b1-a226-4f75-8ba7-d8519187e2b6}, ! Handle
  Component Data 1,                       ! Name
  {397d3480-b538-4e6a-b70a-a37501925daa}, ! UUID
  {331c0a35-96d5-42ec-8bb0-4c1a519f096a}, ! Version UUID
  1366309157,                             ! Creation Timestamp
  1366309157,                             ! Version Timestamp
  {d52a5223-57fe-4336-ac21-6dbd219cbd7d}; ! Name of Object 1

