
OS:Version,
  {a42cd8fe-5c05-4e3e-94b8-516beb80d734}, ! Handle
  0.9.3;                                  ! Version Identifier

OS:SizingPeriod:DesignDay,
  {eaca2690-1799-4be3-a1cd-a003d3da7888}, ! Handle
  Maxwell Afb Ann Htg 99% Condns DB,      ! Name
  -0.3,                                   ! Maximum Dry-Bulb Temperature {C}
  0,                                      ! Daily Dry-Bulb Temperature Range {deltaC}
  -0.3,                                   ! Humidity Indicating Conditions at Maximum Dry-Bulb {BasedOnField A3}
  100690,                                 ! Barometric Pressure {Pa}
  2.4,                                    ! Wind Speed {m/s}
  340,                                    ! Wind Direction {deg}
  0,                                      ! Sky Clearness
  0,                                      ! Rain Indicator
  0,                                      ! Snow Indicator
  21,                                     ! Day of Month
  1,                                      ! Month
  WinterDesignDay,                        ! Day Type
  0,                                      ! Daylight Saving Time Indicator
  Wetbulb,                                ! Humidity Indicating Type
  ,                                       ! Humidity Indicating Day Schedule Name
  DefaultMultipliers,                     ! Dry-Bulb Temperature Range Modifier Type
  ,                                       ! Dry-Bulb Temperature Range Modifier Schedule Name
  ASHRAEClearSky;                         ! Solar Model Indicator

OS:ComponentData,
  {a0a5d2b4-c3d8-46a7-a662-a2423fe9e636}, ! Handle
  Component Data 1,                       ! Name
  {81f1cc86-2999-4bc4-baad-802ba59f585a}, ! UUID
  {6bb90eef-eab3-4cf6-85c5-6ff70266eaff}, ! Version UUID
  1366305682,                             ! Creation Timestamp
  1366305682,                             ! Version Timestamp
  {eaca2690-1799-4be3-a1cd-a003d3da7888}; ! Name of Object 1

