
OS:Version,
  {2a9dda90-0491-484d-8790-f74f65031bae}, ! Handle
  0.9.3;                                  ! Version Identifier

OS:SizingPeriod:DesignDay,
  {69c89b32-0d00-4821-acfd-7dd2e7174bcd}, ! Handle
  Molokai  Amos Ann Clg 2% Condns DP=>MDB, ! Name
  25.7,                                   ! Maximum Dry-Bulb Temperature {C}
  7,                                      ! Daily Dry-Bulb Temperature Range {deltaC}
  22.4,                                   ! Humidity Indicating Conditions at Maximum Dry-Bulb {BasedOnField A3}
  99690,                                  ! Barometric Pressure {Pa}
  6.1,                                    ! Wind Speed {m/s}
  60,                                     ! Wind Direction {deg}
  0,                                      ! Sky Clearness
  0,                                      ! Rain Indicator
  0,                                      ! Snow Indicator
  21,                                     ! Day of Month
  8,                                      ! Month
  SummerDesignDay,                        ! Day Type
  0,                                      ! Daylight Saving Time Indicator
  Dewpoint,                               ! Humidity Indicating Type
  ,                                       ! Humidity Indicating Day Schedule Name
  DefaultMultipliers,                     ! Dry-Bulb Temperature Range Modifier Type
  ,                                       ! Dry-Bulb Temperature Range Modifier Schedule Name
  ASHRAETau,                              ! Solar Model Indicator
  ,                                       ! Beam Solar Day Schedule Name
  ,                                       ! Diffuse Solar Day Schedule Name
  0.373,                                  ! ASHRAE Taub {dimensionless}
  2.559;                                  ! ASHRAE Taud {dimensionless}

OS:ComponentData,
  {10a747b2-441c-476b-8b0b-78d122bd843f}, ! Handle
  Component Data 1,                       ! Name
  {f12aee1c-5877-42ec-9338-5a401932b614}, ! UUID
  {b68730a2-b702-429e-ba12-ff75cdfdb560}, ! Version UUID
  1366307130,                             ! Creation Timestamp
  1366307130,                             ! Version Timestamp
  {69c89b32-0d00-4821-acfd-7dd2e7174bcd}; ! Name of Object 1

