
OS:Version,
  {f199c9ba-e120-478a-ab75-017df2566186}, ! Handle
  0.9.3;                                  ! Version Identifier

OS:SizingPeriod:DesignDay,
  {b46afcba-b5c8-4795-9ed1-6936059d6544}, ! Handle
  Mountain Home Afb Ann Clg 2% Condns Enth=>MDB, ! Name
  31.4,                                   ! Maximum Dry-Bulb Temperature {C}
  18.4,                                   ! Daily Dry-Bulb Temperature Range {deltaC}
  51200,                                  ! Humidity Indicating Conditions at Maximum Dry-Bulb {BasedOnField A3}
  90838,                                  ! Barometric Pressure {Pa}
  3.4,                                    ! Wind Speed {m/s}
  330,                                    ! Wind Direction {deg}
  0,                                      ! Sky Clearness
  0,                                      ! Rain Indicator
  0,                                      ! Snow Indicator
  21,                                     ! Day of Month
  7,                                      ! Month
  SummerDesignDay,                        ! Day Type
  0,                                      ! Daylight Saving Time Indicator
  Enthalpy,                               ! Humidity Indicating Type
  ,                                       ! Humidity Indicating Day Schedule Name
  DefaultMultipliers,                     ! Dry-Bulb Temperature Range Modifier Type
  ,                                       ! Dry-Bulb Temperature Range Modifier Schedule Name
  ASHRAETau,                              ! Solar Model Indicator
  ,                                       ! Beam Solar Day Schedule Name
  ,                                       ! Diffuse Solar Day Schedule Name
  0.425,                                  ! ASHRAE Taub {dimensionless}
  2.01;                                   ! ASHRAE Taud {dimensionless}

OS:ComponentData,
  {4b75e22a-8c57-4869-97e6-30af37a80e8b}, ! Handle
  Component Data 1,                       ! Name
  {bde4f76f-2ee5-48fe-98ea-e3d660911bc7}, ! UUID
  {8c259428-90be-4ea7-ac9e-8fcc8e1c1407}, ! Version UUID
  1366307297,                             ! Creation Timestamp
  1366307297,                             ! Version Timestamp
  {b46afcba-b5c8-4795-9ed1-6936059d6544}; ! Name of Object 1

