
OS:Version,
  {2ff63ad3-49ec-40ad-934d-a3ba70fbfe06}, ! Handle
  0.9.3;                                  ! Version Identifier

OS:SizingPeriod:DesignDay,
  {386817fe-c772-42d2-9f69-1ef174887ebe}, ! Handle
  Siloam Spring Awos Ann Clg 1% Condns DB=>MWB, ! Name
  33.7,                                   ! Maximum Dry-Bulb Temperature {C}
  10.9,                                   ! Daily Dry-Bulb Temperature Range {deltaC}
  23.4,                                   ! Humidity Indicating Conditions at Maximum Dry-Bulb {BasedOnField A3}
  97028,                                  ! Barometric Pressure {Pa}
  3.7,                                    ! Wind Speed {m/s}
  200,                                    ! Wind Direction {deg}
  0,                                      ! Sky Clearness
  0,                                      ! Rain Indicator
  0,                                      ! Snow Indicator
  21,                                     ! Day of Month
  7,                                      ! Month
  SummerDesignDay,                        ! Day Type
  0,                                      ! Daylight Saving Time Indicator
  Wetbulb,                                ! Humidity Indicating Type
  ,                                       ! Humidity Indicating Day Schedule Name
  DefaultMultipliers,                     ! Dry-Bulb Temperature Range Modifier Type
  ,                                       ! Dry-Bulb Temperature Range Modifier Schedule Name
  ASHRAETau,                              ! Solar Model Indicator
  ,                                       ! Beam Solar Day Schedule Name
  ,                                       ! Diffuse Solar Day Schedule Name
  0.456,                                  ! ASHRAE Taub {dimensionless}
  2.079;                                  ! ASHRAE Taud {dimensionless}

OS:ComponentData,
  {287e41e6-2cfc-408d-9a7a-ce3bfded0f09}, ! Handle
  Component Data 1,                       ! Name
  {42f71f42-cc6f-44ae-aa42-6ca709862d6a}, ! UUID
  {7b55c5cd-b467-4560-8e81-3f9eeb93f76e}, ! Version UUID
  1366306246,                             ! Creation Timestamp
  1366306246,                             ! Version Timestamp
  {386817fe-c772-42d2-9f69-1ef174887ebe}; ! Name of Object 1

