
OS:Version,
  {ad9ef60a-7d59-4455-884a-c092677fd3b1}, ! Handle
  0.9.3;                                  ! Version Identifier

OS:SizingPeriod:DesignDay,
  {cc746202-2a2c-408d-97ef-e3c7a3a01825}, ! Handle
  Millville Municipal Ap Ann Clg .4% Condns DP=>MDB, ! Name
  27.5,                                   ! Maximum Dry-Bulb Temperature {C}
  10.4,                                   ! Daily Dry-Bulb Temperature Range {deltaC}
  24.1,                                   ! Humidity Indicating Conditions at Maximum Dry-Bulb {BasedOnField A3}
  101073,                                 ! Barometric Pressure {Pa}
  4.6,                                    ! Wind Speed {m/s}
  270,                                    ! Wind Direction {deg}
  0,                                      ! Sky Clearness
  0,                                      ! Rain Indicator
  0,                                      ! Snow Indicator
  21,                                     ! Day of Month
  7,                                      ! Month
  SummerDesignDay,                        ! Day Type
  0,                                      ! Daylight Saving Time Indicator
  Dewpoint,                               ! Humidity Indicating Type
  ,                                       ! Humidity Indicating Day Schedule Name
  DefaultMultipliers,                     ! Dry-Bulb Temperature Range Modifier Type
  ,                                       ! Dry-Bulb Temperature Range Modifier Schedule Name
  ASHRAETau,                              ! Solar Model Indicator
  ,                                       ! Beam Solar Day Schedule Name
  ,                                       ! Diffuse Solar Day Schedule Name
  0.564,                                  ! ASHRAE Taub {dimensionless}
  1.747;                                  ! ASHRAE Taud {dimensionless}

OS:ComponentData,
  {ae077436-cb73-46b4-90ec-622bd3d08306}, ! Handle
  Component Data 1,                       ! Name
  {bc6550bb-0fc1-4cdf-b3e9-b80849854569}, ! UUID
  {7ada0a76-f07f-4142-b611-8bcd6b18c1d3}, ! Version UUID
  1366309319,                             ! Creation Timestamp
  1366309319,                             ! Version Timestamp
  {cc746202-2a2c-408d-97ef-e3c7a3a01825}; ! Name of Object 1

