
OS:Version,
  {89b157cd-db09-4610-9b6b-ac843c4bd48d}, ! Handle
  0.9.3;                                  ! Version Identifier

OS:SizingPeriod:DesignDay,
  {6f14f62c-fd9a-4150-a02b-67ceca520ee8}, ! Handle
  Vernal Ann Clg 1% Condns DB=>MWB,       ! Name
  32.6,                                   ! Maximum Dry-Bulb Temperature {C}
  17.6,                                   ! Daily Dry-Bulb Temperature Range {deltaC}
  15.9,                                   ! Humidity Indicating Conditions at Maximum Dry-Bulb {BasedOnField A3}
  83441,                                  ! Barometric Pressure {Pa}
  3.2,                                    ! Wind Speed {m/s}
  240,                                    ! Wind Direction {deg}
  0,                                      ! Sky Clearness
  0,                                      ! Rain Indicator
  0,                                      ! Snow Indicator
  21,                                     ! Day of Month
  7,                                      ! Month
  SummerDesignDay,                        ! Day Type
  0,                                      ! Daylight Saving Time Indicator
  Wetbulb,                                ! Humidity Indicating Type
  ,                                       ! Humidity Indicating Day Schedule Name
  DefaultMultipliers,                     ! Dry-Bulb Temperature Range Modifier Type
  ,                                       ! Dry-Bulb Temperature Range Modifier Schedule Name
  ASHRAETau,                              ! Solar Model Indicator
  ,                                       ! Beam Solar Day Schedule Name
  ,                                       ! Diffuse Solar Day Schedule Name
  0.396,                                  ! ASHRAE Taub {dimensionless}
  2.103;                                  ! ASHRAE Taud {dimensionless}

OS:ComponentData,
  {f1c25f01-662f-44ea-bca0-c467de98e56a}, ! Handle
  Component Data 1,                       ! Name
  {680c62dc-f736-426d-9e00-b46be7bc43c7}, ! UUID
  {e75567c6-7f11-477e-8681-623582df9afe}, ! Version UUID
  1366311004,                             ! Creation Timestamp
  1366311004,                             ! Version Timestamp
  {6f14f62c-fd9a-4150-a02b-67ceca520ee8}; ! Name of Object 1

