
OS:Version,
  {71d14ca8-524b-4ac4-abbd-becb8c6bad1a}, ! Handle
  0.9.3;                                  ! Version Identifier

OS:SizingPeriod:DesignDay,
  {8c6c5278-13e0-4c7c-b849-3a29cf7021dd}, ! Handle
  ROCK_SPRINGS Ann Htg 99.6% Condns DB,   ! Name
  -21.2,                                  ! Maximum Dry-Bulb Temperature {C}
  0,                                      ! Daily Dry-Bulb Temperature Range {deltaC}
  -21.2,                                  ! Humidity Indicating Conditions at Maximum Dry-Bulb {BasedOnField A3}
  78944,                                  ! Barometric Pressure {Pa}
  3.6,                                    ! Wind Speed {m/s}
  70,                                     ! Wind Direction {deg}
  0,                                      ! Sky Clearness
  0,                                      ! Rain Indicator
  0,                                      ! Snow Indicator
  21,                                     ! Day of Month
  12,                                     ! Month
  WinterDesignDay,                        ! Day Type
  0,                                      ! Daylight Saving Time Indicator
  Wetbulb,                                ! Humidity Indicating Type
  ,                                       ! Humidity Indicating Day Schedule Name
  DefaultMultipliers,                     ! Dry-Bulb Temperature Range Modifier Type
  ,                                       ! Dry-Bulb Temperature Range Modifier Schedule Name
  ASHRAEClearSky;                         ! Solar Model Indicator

OS:ComponentData,
  {ca2bb755-c260-42ae-93b7-202d4ad6123f}, ! Handle
  Component Data 1,                       ! Name
  {56a6ddd0-ef1c-4bc3-9891-8ab5d701ab49}, ! UUID
  {5e4f1f89-ffab-4909-a75f-ca2bd6e03a60}, ! Version UUID
  1366311768,                             ! Creation Timestamp
  1366311768,                             ! Version Timestamp
  {8c6c5278-13e0-4c7c-b849-3a29cf7021dd}; ! Name of Object 1

