
OS:Version,
  {97821ce5-08fe-471c-91f2-4fb8f99bcd65}, ! Handle
  0.9.3;                                  ! Version Identifier

OS:SizingPeriod:DesignDay,
  {fa0d7027-0640-4783-a403-8f7ff896a29a}, ! Handle
  San Antonio/Randolph A Ann Hum_n 99% Condns DP=>MCDB, ! Name
  7,                                      ! Maximum Dry-Bulb Temperature {C}
  0,                                      ! Daily Dry-Bulb Temperature Range {deltaC}
  -9.1,                                   ! Humidity Indicating Conditions at Maximum Dry-Bulb {BasedOnField A3}
  98569,                                  ! Barometric Pressure {Pa}
  3.7,                                    ! Wind Speed {m/s}
  10,                                     ! Wind Direction {deg}
  0,                                      ! Sky Clearness
  0,                                      ! Rain Indicator
  0,                                      ! Snow Indicator
  21,                                     ! Day of Month
  1,                                      ! Month
  WinterDesignDay,                        ! Day Type
  0,                                      ! Daylight Saving Time Indicator
  Dewpoint,                               ! Humidity Indicating Type
  ,                                       ! Humidity Indicating Day Schedule Name
  DefaultMultipliers,                     ! Dry-Bulb Temperature Range Modifier Type
  ,                                       ! Dry-Bulb Temperature Range Modifier Schedule Name
  ASHRAEClearSky;                         ! Solar Model Indicator

OS:ComponentData,
  {452bdcf5-1b46-4f05-947d-f3acf3004a17}, ! Handle
  Component Data 1,                       ! Name
  {635f6ce6-a48c-46fe-a6c8-50d3f5e4412b}, ! UUID
  {aab38685-a997-46bb-9568-cd24cdf99b1b}, ! Version UUID
  1366310894,                             ! Creation Timestamp
  1366310894,                             ! Version Timestamp
  {fa0d7027-0640-4783-a403-8f7ff896a29a}; ! Name of Object 1

