
OS:Version,
  {67ec6ec2-f3b7-4314-81a2-9e8e2e5c9505}, ! Handle
  0.9.3;                                  ! Version Identifier

OS:SizingPeriod:DesignDay,
  {ba803b54-2fc8-472f-8955-a11c0080fb6e}, ! Handle
  Sioux City Sioux Gateway Ap Ann Clg 2% Condns WB=>MDB, ! Name
  29.3,                                   ! Maximum Dry-Bulb Temperature {C}
  11.4,                                   ! Daily Dry-Bulb Temperature Range {deltaC}
  24,                                     ! Humidity Indicating Conditions at Maximum Dry-Bulb {BasedOnField A3}
  97388,                                  ! Barometric Pressure {Pa}
  6.3,                                    ! Wind Speed {m/s}
  180,                                    ! Wind Direction {deg}
  0,                                      ! Sky Clearness
  0,                                      ! Rain Indicator
  0,                                      ! Snow Indicator
  21,                                     ! Day of Month
  7,                                      ! Month
  SummerDesignDay,                        ! Day Type
  0,                                      ! Daylight Saving Time Indicator
  Wetbulb,                                ! Humidity Indicating Type
  ,                                       ! Humidity Indicating Day Schedule Name
  DefaultMultipliers,                     ! Dry-Bulb Temperature Range Modifier Type
  ,                                       ! Dry-Bulb Temperature Range Modifier Schedule Name
  ASHRAETau,                              ! Solar Model Indicator
  ,                                       ! Beam Solar Day Schedule Name
  ,                                       ! Diffuse Solar Day Schedule Name
  0.409,                                  ! ASHRAE Taub {dimensionless}
  2.217;                                  ! ASHRAE Taud {dimensionless}

OS:ComponentData,
  {b3d437bb-7993-4ce1-9935-3cfd2bd18f4f}, ! Handle
  Component Data 1,                       ! Name
  {d9181e79-8aaa-439b-b636-e911e3e8335a}, ! UUID
  {ce797765-1456-49c0-9808-01ae3c29d394}, ! Version UUID
  1366307236,                             ! Creation Timestamp
  1366307236,                             ! Version Timestamp
  {ba803b54-2fc8-472f-8955-a11c0080fb6e}; ! Name of Object 1

