
OS:Version,
  {5fbcb905-cbf7-45ab-8e6a-0250a5efa448}, ! Handle
  0.9.3;                                  ! Version Identifier

OS:SizingPeriod:DesignDay,
  {caf6c705-3699-4d4f-8437-2a8306828c09}, ! Handle
  Stampede Pass Ann Htg Wind 99% Condns WS=>MCDB, ! Name
  -4.1,                                   ! Maximum Dry-Bulb Temperature {C}
  0,                                      ! Daily Dry-Bulb Temperature Range {deltaC}
  -4.1,                                   ! Humidity Indicating Conditions at Maximum Dry-Bulb {BasedOnField A3}
  87651,                                  ! Barometric Pressure {Pa}
  10.8,                                   ! Wind Speed {m/s}
  90,                                     ! Wind Direction {deg}
  0,                                      ! Sky Clearness
  0,                                      ! Rain Indicator
  0,                                      ! Snow Indicator
  21,                                     ! Day of Month
  12,                                     ! Month
  WinterDesignDay,                        ! Day Type
  0,                                      ! Daylight Saving Time Indicator
  Wetbulb,                                ! Humidity Indicating Type
  ,                                       ! Humidity Indicating Day Schedule Name
  DefaultMultipliers,                     ! Dry-Bulb Temperature Range Modifier Type
  ,                                       ! Dry-Bulb Temperature Range Modifier Schedule Name
  ASHRAEClearSky;                         ! Solar Model Indicator

OS:ComponentData,
  {cfae470b-db73-40d3-ab0e-63e0b093a203}, ! Handle
  Component Data 1,                       ! Name
  {e43e01f8-d304-4f30-a6f5-3b946ca93373}, ! UUID
  {25bb3d21-2cce-49b9-8d64-f78d29efd585}, ! Version UUID
  1366311400,                             ! Creation Timestamp
  1366311400,                             ! Version Timestamp
  {caf6c705-3699-4d4f-8437-2a8306828c09}; ! Name of Object 1

