
OS:Version,
  {11e861d5-c9a3-416e-9758-e3dcbbfc2484}, ! Handle
  0.9.3;                                  ! Version Identifier

OS:SizingPeriod:DesignDay,
  {3783692d-19fb-4fb4-8313-e6f47c4e0406}, ! Handle
  Miles City Ann Hum_n 99.6% Condns DP=>MCDB, ! Name
  -27.7,                                  ! Maximum Dry-Bulb Temperature {C}
  0,                                      ! Daily Dry-Bulb Temperature Range {deltaC}
  -32.5,                                  ! Humidity Indicating Conditions at Maximum Dry-Bulb {BasedOnField A3}
  92065,                                  ! Barometric Pressure {Pa}
  3.2,                                    ! Wind Speed {m/s}
  310,                                    ! Wind Direction {deg}
  0,                                      ! Sky Clearness
  0,                                      ! Rain Indicator
  0,                                      ! Snow Indicator
  21,                                     ! Day of Month
  1,                                      ! Month
  WinterDesignDay,                        ! Day Type
  0,                                      ! Daylight Saving Time Indicator
  Dewpoint,                               ! Humidity Indicating Type
  ,                                       ! Humidity Indicating Day Schedule Name
  DefaultMultipliers,                     ! Dry-Bulb Temperature Range Modifier Type
  ,                                       ! Dry-Bulb Temperature Range Modifier Schedule Name
  ASHRAEClearSky;                         ! Solar Model Indicator

OS:ComponentData,
  {d1171353-faf7-4881-b669-0c5788a98d8c}, ! Handle
  Component Data 1,                       ! Name
  {5b8b2fd0-a4a9-405e-ae16-3fa2e2ec7621}, ! UUID
  {8e759e8d-82d5-47cb-bc78-0c73ffeb4258}, ! Version UUID
  1366308831,                             ! Creation Timestamp
  1366308831,                             ! Version Timestamp
  {3783692d-19fb-4fb4-8313-e6f47c4e0406}; ! Name of Object 1

