
OS:Version,
  {44e972df-991c-481c-8b32-953705c353f9}, ! Handle
  0.9.3;                                  ! Version Identifier

OS:SizingPeriod:DesignDay,
  {b2f7e3fb-ca09-4662-9fb5-4c164b4eda12}, ! Handle
  Pittsburgh Allegheny Co Ap Ann Clg 1% Condns WB=>MDB, ! Name
  28.4,                                   ! Maximum Dry-Bulb Temperature {C}
  9.9,                                    ! Daily Dry-Bulb Temperature Range {deltaC}
  23.2,                                   ! Humidity Indicating Conditions at Maximum Dry-Bulb {BasedOnField A3}
  96842,                                  ! Barometric Pressure {Pa}
  4.4,                                    ! Wind Speed {m/s}
  240,                                    ! Wind Direction {deg}
  0,                                      ! Sky Clearness
  0,                                      ! Rain Indicator
  0,                                      ! Snow Indicator
  21,                                     ! Day of Month
  7,                                      ! Month
  SummerDesignDay,                        ! Day Type
  0,                                      ! Daylight Saving Time Indicator
  Wetbulb,                                ! Humidity Indicating Type
  ,                                       ! Humidity Indicating Day Schedule Name
  DefaultMultipliers,                     ! Dry-Bulb Temperature Range Modifier Type
  ,                                       ! Dry-Bulb Temperature Range Modifier Schedule Name
  ASHRAETau,                              ! Solar Model Indicator
  ,                                       ! Beam Solar Day Schedule Name
  ,                                       ! Diffuse Solar Day Schedule Name
  0.484,                                  ! ASHRAE Taub {dimensionless}
  1.916;                                  ! ASHRAE Taud {dimensionless}

OS:ComponentData,
  {c3fdea5b-7f15-4e09-aac6-b1bee363284a}, ! Handle
  Component Data 1,                       ! Name
  {f27b866d-0cfb-46f3-9c79-267a47b18b25}, ! UUID
  {439b54eb-dfb3-47c3-9cee-82b3a9a78d87}, ! Version UUID
  1366310228,                             ! Creation Timestamp
  1366310228,                             ! Version Timestamp
  {b2f7e3fb-ca09-4662-9fb5-4c164b4eda12}; ! Name of Object 1

