
OS:Version,
  {69599cf5-43c7-4285-b3f1-ce27be3c6e45}, ! Handle
  0.9.3;                                  ! Version Identifier

OS:SizingPeriod:DesignDay,
  {b1bae364-37e0-4bbd-b3a3-acaab0e74fff}, ! Handle
  Rhinelander Oneida Ann Clg 1% Condns DP=>MDB, ! Name
  24.2,                                   ! Maximum Dry-Bulb Temperature {C}
  12.8,                                   ! Daily Dry-Bulb Temperature Range {deltaC}
  20.2,                                   ! Humidity Indicating Conditions at Maximum Dry-Bulb {BasedOnField A3}
  95381,                                  ! Barometric Pressure {Pa}
  4.4,                                    ! Wind Speed {m/s}
  210,                                    ! Wind Direction {deg}
  0,                                      ! Sky Clearness
  0,                                      ! Rain Indicator
  0,                                      ! Snow Indicator
  21,                                     ! Day of Month
  7,                                      ! Month
  SummerDesignDay,                        ! Day Type
  0,                                      ! Daylight Saving Time Indicator
  Dewpoint,                               ! Humidity Indicating Type
  ,                                       ! Humidity Indicating Day Schedule Name
  DefaultMultipliers,                     ! Dry-Bulb Temperature Range Modifier Type
  ,                                       ! Dry-Bulb Temperature Range Modifier Schedule Name
  ASHRAETau,                              ! Solar Model Indicator
  ,                                       ! Beam Solar Day Schedule Name
  ,                                       ! Diffuse Solar Day Schedule Name
  0.405,                                  ! ASHRAE Taub {dimensionless}
  2.18;                                   ! ASHRAE Taud {dimensionless}

