
OS:Version,
  {f430580b-118d-4b2b-adf5-261bcb4b4e63}, ! Handle
  0.9.3;                                  ! Version Identifier

OS:SizingPeriod:DesignDay,
  {b4089acd-2a23-4f47-9ba5-ddc2d6e7f964}, ! Handle
  Rockland Knox Awos Ann Clg 2% Condns WB=>MDB, ! Name
  22.6,                                   ! Maximum Dry-Bulb Temperature {C}
  8.9,                                    ! Daily Dry-Bulb Temperature Range {deltaC}
  19.2,                                   ! Humidity Indicating Conditions at Maximum Dry-Bulb {BasedOnField A3}
  101121,                                 ! Barometric Pressure {Pa}
  4,                                      ! Wind Speed {m/s}
  280,                                    ! Wind Direction {deg}
  0,                                      ! Sky Clearness
  0,                                      ! Rain Indicator
  0,                                      ! Snow Indicator
  21,                                     ! Day of Month
  7,                                      ! Month
  SummerDesignDay,                        ! Day Type
  0,                                      ! Daylight Saving Time Indicator
  Wetbulb,                                ! Humidity Indicating Type
  ,                                       ! Humidity Indicating Day Schedule Name
  DefaultMultipliers,                     ! Dry-Bulb Temperature Range Modifier Type
  ,                                       ! Dry-Bulb Temperature Range Modifier Schedule Name
  ASHRAETau,                              ! Solar Model Indicator
  ,                                       ! Beam Solar Day Schedule Name
  ,                                       ! Diffuse Solar Day Schedule Name
  0.475,                                  ! ASHRAE Taub {dimensionless}
  1.988;                                  ! ASHRAE Taud {dimensionless}

OS:ComponentData,
  {bfbf2b3d-3136-43ee-828b-c5444aebd8e6}, ! Handle
  Component Data 1,                       ! Name
  {e0e8e752-3b38-4348-a4de-c17ff2ab1983}, ! UUID
  {7d4b1602-d00a-4f35-be6f-1e2bf312af02}, ! Version UUID
  1366307923,                             ! Creation Timestamp
  1366307923,                             ! Version Timestamp
  {b4089acd-2a23-4f47-9ba5-ddc2d6e7f964}; ! Name of Object 1

