
OS:Version,
  {cba8fe9e-f245-4fef-af15-84b4d65bc945}, ! Handle
  0.9.3;                                  ! Version Identifier

OS:SizingPeriod:DesignDay,
  {3cef936e-c499-4cdb-853b-c4725b7aa281}, ! Handle
  Palmer Municipal Ann Hum_n 99% Condns DP=>MCDB, ! Name
  -20.5,                                  ! Maximum Dry-Bulb Temperature {C}
  0,                                      ! Daily Dry-Bulb Temperature Range {deltaC}
  -26.4,                                  ! Humidity Indicating Conditions at Maximum Dry-Bulb {BasedOnField A3}
  100475,                                 ! Barometric Pressure {Pa}
  0.6,                                    ! Wind Speed {m/s}
  0,                                      ! Wind Direction {deg}
  0,                                      ! Sky Clearness
  0,                                      ! Rain Indicator
  0,                                      ! Snow Indicator
  21,                                     ! Day of Month
  1,                                      ! Month
  WinterDesignDay,                        ! Day Type
  0,                                      ! Daylight Saving Time Indicator
  Dewpoint,                               ! Humidity Indicating Type
  ,                                       ! Humidity Indicating Day Schedule Name
  DefaultMultipliers,                     ! Dry-Bulb Temperature Range Modifier Type
  ,                                       ! Dry-Bulb Temperature Range Modifier Schedule Name
  ASHRAEClearSky;                         ! Solar Model Indicator

OS:ComponentData,
  {3eb1a386-d956-4c70-b40e-9955f300a14a}, ! Handle
  Component Data 1,                       ! Name
  {b98847f3-9a6f-4a4b-ad8d-3bbd54c33ccb}, ! UUID
  {ebdaf0ec-84d7-475b-a2ad-6bca1848a2d3}, ! Version UUID
  1366305474,                             ! Creation Timestamp
  1366305474,                             ! Version Timestamp
  {3cef936e-c499-4cdb-853b-c4725b7aa281}; ! Name of Object 1

