
OS:Version,
  {4b64d733-7d5b-419d-8339-fea13246c95e}, ! Handle
  0.9.3;                                  ! Version Identifier

OS:SizingPeriod:DesignDay,
  {a8c17bc0-912a-4122-93de-2319057201b7}, ! Handle
  Philadelphia Ne Philadelphia Ann Clg .4% Condns DP=>MDB, ! Name
  28.5,                                   ! Maximum Dry-Bulb Temperature {C}
  10.3,                                   ! Daily Dry-Bulb Temperature Range {deltaC}
  24.2,                                   ! Humidity Indicating Conditions at Maximum Dry-Bulb {BasedOnField A3}
  100965,                                 ! Barometric Pressure {Pa}
  4.4,                                    ! Wind Speed {m/s}
  300,                                    ! Wind Direction {deg}
  0,                                      ! Sky Clearness
  0,                                      ! Rain Indicator
  0,                                      ! Snow Indicator
  21,                                     ! Day of Month
  7,                                      ! Month
  SummerDesignDay,                        ! Day Type
  0,                                      ! Daylight Saving Time Indicator
  Dewpoint,                               ! Humidity Indicating Type
  ,                                       ! Humidity Indicating Day Schedule Name
  DefaultMultipliers,                     ! Dry-Bulb Temperature Range Modifier Type
  ,                                       ! Dry-Bulb Temperature Range Modifier Schedule Name
  ASHRAETau,                              ! Solar Model Indicator
  ,                                       ! Beam Solar Day Schedule Name
  ,                                       ! Diffuse Solar Day Schedule Name
  0.537,                                  ! ASHRAE Taub {dimensionless}
  1.806;                                  ! ASHRAE Taud {dimensionless}

OS:ComponentData,
  {31ae9071-6fdc-41a3-8f01-36bb712bc026}, ! Handle
  Component Data 1,                       ! Name
  {244652b3-8110-4080-81bc-53b189149b1e}, ! UUID
  {3638544e-bd94-42ea-9d59-ba6090892362}, ! Version UUID
  1366310208,                             ! Creation Timestamp
  1366310208,                             ! Version Timestamp
  {a8c17bc0-912a-4122-93de-2319057201b7}; ! Name of Object 1

