
OS:Version,
  {204935b9-ab9b-40f5-85ca-2169050e0152}, ! Handle
  0.9.3;                                  ! Version Identifier

OS:SizingPeriod:DesignDay,
  {afbfcc13-9c68-4283-bd49-0f0bd1c21840}, ! Handle
  Youngstown Regional Airport Ann Clg 2% Condns Enth=>MDB, ! Name
  26.4,                                   ! Maximum Dry-Bulb Temperature {C}
  11.5,                                   ! Daily Dry-Bulb Temperature Range {deltaC}
  66800,                                  ! Humidity Indicating Conditions at Maximum Dry-Bulb {BasedOnField A3}
  97074,                                  ! Barometric Pressure {Pa}
  4.3,                                    ! Wind Speed {m/s}
  230,                                    ! Wind Direction {deg}
  0,                                      ! Sky Clearness
  0,                                      ! Rain Indicator
  0,                                      ! Snow Indicator
  21,                                     ! Day of Month
  7,                                      ! Month
  SummerDesignDay,                        ! Day Type
  0,                                      ! Daylight Saving Time Indicator
  Enthalpy,                               ! Humidity Indicating Type
  ,                                       ! Humidity Indicating Day Schedule Name
  DefaultMultipliers,                     ! Dry-Bulb Temperature Range Modifier Type
  ,                                       ! Dry-Bulb Temperature Range Modifier Schedule Name
  ASHRAETau,                              ! Solar Model Indicator
  ,                                       ! Beam Solar Day Schedule Name
  ,                                       ! Diffuse Solar Day Schedule Name
  0.456,                                  ! ASHRAE Taub {dimensionless}
  2.022;                                  ! ASHRAE Taud {dimensionless}

