
OS:Version,
  {f942ac1f-d112-470b-b4a6-28fc0cdc3d49}, ! Handle
  0.9.3;                                  ! Version Identifier

OS:SizingPeriod:DesignDay,
  {dc94703b-97ec-4a2e-b0ad-8345228f6d01}, ! Handle
  NEWARK Ann Clg .4% Condns DP=>MDB,      ! Name
  27.8,                                   ! Maximum Dry-Bulb Temperature {C}
  8.9,                                    ! Daily Dry-Bulb Temperature Range {deltaC}
  23.7,                                   ! Humidity Indicating Conditions at Maximum Dry-Bulb {BasedOnField A3}
  101217,                                 ! Barometric Pressure {Pa}
  5.8,                                    ! Wind Speed {m/s}
  250,                                    ! Wind Direction {deg}
  0,                                      ! Sky Clearness
  0,                                      ! Rain Indicator
  0,                                      ! Snow Indicator
  21,                                     ! Day of Month
  7,                                      ! Month
  SummerDesignDay,                        ! Day Type
  0,                                      ! Daylight Saving Time Indicator
  Dewpoint,                               ! Humidity Indicating Type
  ,                                       ! Humidity Indicating Day Schedule Name
  DefaultMultipliers,                     ! Dry-Bulb Temperature Range Modifier Type
  ,                                       ! Dry-Bulb Temperature Range Modifier Schedule Name
  ASHRAETau,                              ! Solar Model Indicator
  ,                                       ! Beam Solar Day Schedule Name
  ,                                       ! Diffuse Solar Day Schedule Name
  0.528,                                  ! ASHRAE Taub {dimensionless}
  1.831;                                  ! ASHRAE Taud {dimensionless}

OS:ComponentData,
  {26507525-7d78-4540-9d18-f2693e63bb1d}, ! Handle
  Component Data 1,                       ! Name
  {df40466c-46f9-4ed6-a0a8-9a629c12b3e3}, ! UUID
  {7353e6fe-bd10-4f32-81a7-d65a0f0dd7da}, ! Version UUID
  1366309328,                             ! Creation Timestamp
  1366309328,                             ! Version Timestamp
  {dc94703b-97ec-4a2e-b0ad-8345228f6d01}; ! Name of Object 1

