
OS:Version,
  {c184bedf-36ae-4623-a562-a39cb270949e}, ! Handle
  0.9.3;                                  ! Version Identifier

OS:SizingPeriod:DesignDay,
  {4a70efd7-882f-4ab2-ac0e-ae0317bbccd6}, ! Handle
  Mobridge Ann Htg 99% Condns DB,         ! Name
  -23.4,                                  ! Maximum Dry-Bulb Temperature {C}
  0,                                      ! Daily Dry-Bulb Temperature Range {deltaC}
  -23.4,                                  ! Humidity Indicating Conditions at Maximum Dry-Bulb {BasedOnField A3}
  95369,                                  ! Barometric Pressure {Pa}
  3.1,                                    ! Wind Speed {m/s}
  330,                                    ! Wind Direction {deg}
  0,                                      ! Sky Clearness
  0,                                      ! Rain Indicator
  0,                                      ! Snow Indicator
  21,                                     ! Day of Month
  1,                                      ! Month
  WinterDesignDay,                        ! Day Type
  0,                                      ! Daylight Saving Time Indicator
  Wetbulb,                                ! Humidity Indicating Type
  ,                                       ! Humidity Indicating Day Schedule Name
  DefaultMultipliers,                     ! Dry-Bulb Temperature Range Modifier Type
  ,                                       ! Dry-Bulb Temperature Range Modifier Schedule Name
  ASHRAEClearSky;                         ! Solar Model Indicator

OS:ComponentData,
  {35e944ab-7cb8-4b46-9f8e-1ac7d01689b8}, ! Handle
  Component Data 1,                       ! Name
  {6dc9e8f8-22ac-4a33-b9ee-a33e21bde03f}, ! UUID
  {bd5489d2-5307-4947-9de0-d8e0ffae592a}, ! Version UUID
  1366310416,                             ! Creation Timestamp
  1366310416,                             ! Version Timestamp
  {4a70efd7-882f-4ab2-ac0e-ae0317bbccd6}; ! Name of Object 1

