
OS:Version,
  {4a44432b-f267-4824-b64b-f9e0611f91bc}, ! Handle
  0.9.3;                                  ! Version Identifier

OS:SizingPeriod:DesignDay,
  {1603bfe1-970f-4569-8c32-ec3f724f4d50}, ! Handle
  Savannah Intl Ap Ann Clg .4% Condns Enth=>MDB, ! Name
  31.8,                                   ! Maximum Dry-Bulb Temperature {C}
  10,                                     ! Daily Dry-Bulb Temperature Range {deltaC}
  83500,                                  ! Humidity Indicating Conditions at Maximum Dry-Bulb {BasedOnField A3}
  101157,                                 ! Barometric Pressure {Pa}
  3.7,                                    ! Wind Speed {m/s}
  290,                                    ! Wind Direction {deg}
  0,                                      ! Sky Clearness
  0,                                      ! Rain Indicator
  0,                                      ! Snow Indicator
  21,                                     ! Day of Month
  7,                                      ! Month
  SummerDesignDay,                        ! Day Type
  0,                                      ! Daylight Saving Time Indicator
  Enthalpy,                               ! Humidity Indicating Type
  ,                                       ! Humidity Indicating Day Schedule Name
  DefaultMultipliers,                     ! Dry-Bulb Temperature Range Modifier Type
  ,                                       ! Dry-Bulb Temperature Range Modifier Schedule Name
  ASHRAETau,                              ! Solar Model Indicator
  ,                                       ! Beam Solar Day Schedule Name
  ,                                       ! Diffuse Solar Day Schedule Name
  0.558,                                  ! ASHRAE Taub {dimensionless}
  1.811;                                  ! ASHRAE Taud {dimensionless}

OS:ComponentData,
  {147388c6-5a94-4905-8cac-2c3a4c51a73d}, ! Handle
  Component Data 1,                       ! Name
  {e1a8dd64-3487-40c1-a103-c6091c35379e}, ! UUID
  {0d540a8c-9e79-4ad3-b0d7-9b26a9bec6d9}, ! Version UUID
  1366307057,                             ! Creation Timestamp
  1366307057,                             ! Version Timestamp
  {1603bfe1-970f-4569-8c32-ec3f724f4d50}; ! Name of Object 1

