
OS:Version,
  {e747047d-1590-45e3-a260-f2af3ea1091c}, ! Handle
  0.9.3;                                  ! Version Identifier

OS:SizingPeriod:DesignDay,
  {a87e70e4-5ad4-4faa-86a4-0f501441d69b}, ! Handle
  Sierra Blanca Rgnl Ann Clg 1% Condns Enth=>MDB, ! Name
  22.1,                                   ! Maximum Dry-Bulb Temperature {C}
  12,                                     ! Daily Dry-Bulb Temperature Range {deltaC}
  58500,                                  ! Humidity Indicating Conditions at Maximum Dry-Bulb {BasedOnField A3}
  78728,                                  ! Barometric Pressure {Pa}
  5.3,                                    ! Wind Speed {m/s}
  200,                                    ! Wind Direction {deg}
  0,                                      ! Sky Clearness
  0,                                      ! Rain Indicator
  0,                                      ! Snow Indicator
  21,                                     ! Day of Month
  7,                                      ! Month
  SummerDesignDay,                        ! Day Type
  0,                                      ! Daylight Saving Time Indicator
  Enthalpy,                               ! Humidity Indicating Type
  ,                                       ! Humidity Indicating Day Schedule Name
  DefaultMultipliers,                     ! Dry-Bulb Temperature Range Modifier Type
  ,                                       ! Dry-Bulb Temperature Range Modifier Schedule Name
  ASHRAETau,                              ! Solar Model Indicator
  ,                                       ! Beam Solar Day Schedule Name
  ,                                       ! Diffuse Solar Day Schedule Name
  0.414,                                  ! ASHRAE Taub {dimensionless}
  2.048;                                  ! ASHRAE Taud {dimensionless}

