
OS:Version,
  {b7698fa2-41b7-457a-afa2-a7313c4a2f7a}, ! Handle
  0.9.3;                                  ! Version Identifier

OS:SizingPeriod:DesignDay,
  {62bcd8b2-f740-4b9b-9887-734a81d31252}, ! Handle
  MACON Ann Clg .4% Condns DP=>MDB,       ! Name
  28.6,                                   ! Maximum Dry-Bulb Temperature {C}
  11.1,                                   ! Daily Dry-Bulb Temperature Range {deltaC}
  24.5,                                   ! Humidity Indicating Conditions at Maximum Dry-Bulb {BasedOnField A3}
  100011,                                 ! Barometric Pressure {Pa}
  3.6,                                    ! Wind Speed {m/s}
  300,                                    ! Wind Direction {deg}
  0,                                      ! Sky Clearness
  0,                                      ! Rain Indicator
  0,                                      ! Snow Indicator
  21,                                     ! Day of Month
  7,                                      ! Month
  SummerDesignDay,                        ! Day Type
  0,                                      ! Daylight Saving Time Indicator
  Dewpoint,                               ! Humidity Indicating Type
  ,                                       ! Humidity Indicating Day Schedule Name
  DefaultMultipliers,                     ! Dry-Bulb Temperature Range Modifier Type
  ,                                       ! Dry-Bulb Temperature Range Modifier Schedule Name
  ASHRAETau,                              ! Solar Model Indicator
  ,                                       ! Beam Solar Day Schedule Name
  ,                                       ! Diffuse Solar Day Schedule Name
  0.549,                                  ! ASHRAE Taub {dimensionless}
  1.812;                                  ! ASHRAE Taud {dimensionless}

OS:ComponentData,
  {2b94f2a5-504a-4f3c-b67e-6cda92d16f5a}, ! Handle
  Component Data 1,                       ! Name
  {1745ed09-444f-4049-9fa4-df7a1a4142e6}, ! UUID
  {119b7807-4b6e-4c65-afda-98592f08581b}, ! Version UUID
  1366307028,                             ! Creation Timestamp
  1366307028,                             ! Version Timestamp
  {62bcd8b2-f740-4b9b-9887-734a81d31252}; ! Name of Object 1

