
OS:Version,
  {95790635-0640-4c71-84dd-c76fa16bb7fd}, ! Handle
  0.9.3;                                  ! Version Identifier

OS:SizingPeriod:DesignDay,
  {b8f42ee1-0cd2-44a3-a3b8-a1361fd77e6b}, ! Handle
  Stewart Field Ann Clg 1% Condns Enth=>MDB, ! Name
  28,                                     ! Maximum Dry-Bulb Temperature {C}
  10.3,                                   ! Daily Dry-Bulb Temperature Range {deltaC}
  70900,                                  ! Humidity Indicating Conditions at Maximum Dry-Bulb {BasedOnField A3}
  99217,                                  ! Barometric Pressure {Pa}
  4.8,                                    ! Wind Speed {m/s}
  240,                                    ! Wind Direction {deg}
  0,                                      ! Sky Clearness
  0,                                      ! Rain Indicator
  0,                                      ! Snow Indicator
  21,                                     ! Day of Month
  7,                                      ! Month
  SummerDesignDay,                        ! Day Type
  0,                                      ! Daylight Saving Time Indicator
  Enthalpy,                               ! Humidity Indicating Type
  ,                                       ! Humidity Indicating Day Schedule Name
  DefaultMultipliers,                     ! Dry-Bulb Temperature Range Modifier Type
  ,                                       ! Dry-Bulb Temperature Range Modifier Schedule Name
  ASHRAETau,                              ! Solar Model Indicator
  ,                                       ! Beam Solar Day Schedule Name
  ,                                       ! Diffuse Solar Day Schedule Name
  0.476,                                  ! ASHRAE Taub {dimensionless}
  1.96;                                   ! ASHRAE Taud {dimensionless}

OS:ComponentData,
  {1c393497-b632-476b-94f2-bf301652d366}, ! Handle
  Component Data 1,                       ! Name
  {ef0da899-c171-4f27-97ed-c5c940a24927}, ! UUID
  {abaf2839-5603-49d8-b52c-2d510b2a2a6b}, ! Version UUID
  1366309696,                             ! Creation Timestamp
  1366309696,                             ! Version Timestamp
  {b8f42ee1-0cd2-44a3-a3b8-a1361fd77e6b}; ! Name of Object 1

