
OS:Version,
  {92bc7739-e404-43b9-9c82-ccd2c99f7089}, ! Handle
  0.9.3;                                  ! Version Identifier

OS:SizingPeriod:DesignDay,
  {5baa2209-2017-4dc8-a20d-9fa9a45b2fad}, ! Handle
  Nome Municipal Arpt Ann Hum_n 99.6% Condns DP=>MCDB, ! Name
  -32.7,                                  ! Maximum Dry-Bulb Temperature {C}
  0,                                      ! Daily Dry-Bulb Temperature Range {deltaC}
  -36.6,                                  ! Humidity Indicating Conditions at Maximum Dry-Bulb {BasedOnField A3}
  101277,                                 ! Barometric Pressure {Pa}
  1.1,                                    ! Wind Speed {m/s}
  10,                                     ! Wind Direction {deg}
  0,                                      ! Sky Clearness
  0,                                      ! Rain Indicator
  0,                                      ! Snow Indicator
  21,                                     ! Day of Month
  1,                                      ! Month
  WinterDesignDay,                        ! Day Type
  0,                                      ! Daylight Saving Time Indicator
  Dewpoint,                               ! Humidity Indicating Type
  ,                                       ! Humidity Indicating Day Schedule Name
  DefaultMultipliers,                     ! Dry-Bulb Temperature Range Modifier Type
  ,                                       ! Dry-Bulb Temperature Range Modifier Schedule Name
  ASHRAEClearSky;                         ! Solar Model Indicator

OS:ComponentData,
  {3d2f48da-5866-4feb-aae8-d16823dbbf03}, ! Handle
  Component Data 1,                       ! Name
  {d2ab9e20-7978-47ca-8276-0bbaa59e45fe}, ! UUID
  {46c292d2-be68-4e96-93f4-c19eec759f8b}, ! Version UUID
  1366305461,                             ! Creation Timestamp
  1366305461,                             ! Version Timestamp
  {5baa2209-2017-4dc8-a20d-9fa9a45b2fad}; ! Name of Object 1

