
OS:Version,
  {c060cc45-cb4c-402a-8f11-0cd218bce0e4}, ! Handle
  0.9.3;                                  ! Version Identifier

OS:SizingPeriod:DesignDay,
  {0eb65dac-bb89-4655-8380-2b416859ed0c}, ! Handle
  SAN_FRANCISCO Ann Clg 2% Condns WB=>MDB, ! Name
  22.4,                                   ! Maximum Dry-Bulb Temperature {C}
  8.5,                                    ! Daily Dry-Bulb Temperature Range {deltaC}
  17,                                     ! Humidity Indicating Conditions at Maximum Dry-Bulb {BasedOnField A3}
  101265,                                 ! Barometric Pressure {Pa}
  5.9,                                    ! Wind Speed {m/s}
  310,                                    ! Wind Direction {deg}
  0,                                      ! Sky Clearness
  0,                                      ! Rain Indicator
  0,                                      ! Snow Indicator
  21,                                     ! Day of Month
  8,                                      ! Month
  SummerDesignDay,                        ! Day Type
  0,                                      ! Daylight Saving Time Indicator
  Wetbulb,                                ! Humidity Indicating Type
  ,                                       ! Humidity Indicating Day Schedule Name
  DefaultMultipliers,                     ! Dry-Bulb Temperature Range Modifier Type
  ,                                       ! Dry-Bulb Temperature Range Modifier Schedule Name
  ASHRAETau,                              ! Solar Model Indicator
  ,                                       ! Beam Solar Day Schedule Name
  ,                                       ! Diffuse Solar Day Schedule Name
  0.365,                                  ! ASHRAE Taub {dimensionless}
  2.435;                                  ! ASHRAE Taud {dimensionless}

OS:ComponentData,
  {7d410cf8-734d-4a1b-8b80-085b15b39bf3}, ! Handle
  Component Data 1,                       ! Name
  {a6f4267f-55cd-46c4-8c44-c0ca920fc48f}, ! UUID
  {1f8b73d5-7e88-4246-ba82-7184b1117422}, ! Version UUID
  1366306591,                             ! Creation Timestamp
  1366306591,                             ! Version Timestamp
  {0eb65dac-bb89-4655-8380-2b416859ed0c}; ! Name of Object 1

