
OS:Version,
  {c4f81009-68b6-4bbf-8502-187f21e5dfdc}, ! Handle
  0.9.3;                                  ! Version Identifier

OS:SizingPeriod:DesignDay,
  {3125ca46-9cc1-4f24-a51c-a699f645720b}, ! Handle
  Southern Illinois Ann Clg .4% Condns DB=>MWB, ! Name
  33.9,                                   ! Maximum Dry-Bulb Temperature {C}
  10.4,                                   ! Daily Dry-Bulb Temperature Range {deltaC}
  25.2,                                   ! Humidity Indicating Conditions at Maximum Dry-Bulb {BasedOnField A3}
  99797,                                  ! Barometric Pressure {Pa}
  3.8,                                    ! Wind Speed {m/s}
  200,                                    ! Wind Direction {deg}
  0,                                      ! Sky Clearness
  0,                                      ! Rain Indicator
  0,                                      ! Snow Indicator
  21,                                     ! Day of Month
  7,                                      ! Month
  SummerDesignDay,                        ! Day Type
  0,                                      ! Daylight Saving Time Indicator
  Wetbulb,                                ! Humidity Indicating Type
  ,                                       ! Humidity Indicating Day Schedule Name
  DefaultMultipliers,                     ! Dry-Bulb Temperature Range Modifier Type
  ,                                       ! Dry-Bulb Temperature Range Modifier Schedule Name
  ASHRAETau,                              ! Solar Model Indicator
  ,                                       ! Beam Solar Day Schedule Name
  ,                                       ! Diffuse Solar Day Schedule Name
  0.488,                                  ! ASHRAE Taub {dimensionless}
  1.955;                                  ! ASHRAE Taud {dimensionless}

OS:ComponentData,
  {d6202444-0b1d-4d8b-af6b-07b78e01c4dd}, ! Handle
  Component Data 1,                       ! Name
  {ec443e20-567d-4f6c-a548-117728893448}, ! UUID
  {9f3128cd-e638-4a35-9a15-572c9cec0d1f}, ! Version UUID
  1366307331,                             ! Creation Timestamp
  1366307331,                             ! Version Timestamp
  {3125ca46-9cc1-4f24-a51c-a699f645720b}; ! Name of Object 1

