
OS:Version,
  {43b931a0-f529-4a0a-8609-e6c3a454994f}, ! Handle
  0.9.3;                                  ! Version Identifier

OS:SizingPeriod:DesignDay,
  {f0f305d2-4b07-4a25-a70e-ef59ed14ef95}, ! Handle
  Wausau Municipal Arpt Ann Htg Wind 99% Condns WS=>MCDB, ! Name
  -7.3,                                   ! Maximum Dry-Bulb Temperature {C}
  0,                                      ! Daily Dry-Bulb Temperature Range {deltaC}
  -7.3,                                   ! Humidity Indicating Conditions at Maximum Dry-Bulb {BasedOnField A3}
  97005,                                  ! Barometric Pressure {Pa}
  8.5,                                    ! Wind Speed {m/s}
  300,                                    ! Wind Direction {deg}
  0,                                      ! Sky Clearness
  0,                                      ! Rain Indicator
  0,                                      ! Snow Indicator
  21,                                     ! Day of Month
  1,                                      ! Month
  WinterDesignDay,                        ! Day Type
  0,                                      ! Daylight Saving Time Indicator
  Wetbulb,                                ! Humidity Indicating Type
  ,                                       ! Humidity Indicating Day Schedule Name
  DefaultMultipliers,                     ! Dry-Bulb Temperature Range Modifier Type
  ,                                       ! Dry-Bulb Temperature Range Modifier Schedule Name
  ASHRAEClearSky;                         ! Solar Model Indicator

OS:ComponentData,
  {4ed60380-a439-4d6d-a2e7-3afdfee24cc0}, ! Handle
  Component Data 1,                       ! Name
  {78ba8a87-6dee-45b8-ba1f-1e5d3f25c3d4}, ! UUID
  {a8b3a538-be10-4d40-b09f-f9e94b3047d5}, ! Version UUID
  1366311597,                             ! Creation Timestamp
  1366311597,                             ! Version Timestamp
  {f0f305d2-4b07-4a25-a70e-ef59ed14ef95}; ! Name of Object 1

