
OS:Version,
  {fc41d483-e43f-44ae-9b2d-f470a796b2b2}, ! Handle
  0.9.3;                                  ! Version Identifier

OS:SizingPeriod:DesignDay,
  {d22b2e9e-4b81-4493-9c75-1f26b1fec814}, ! Handle
  Red Bluff Municipal Arpt Ann Clg 1% Condns Enth=>MDB, ! Name
  34.5,                                   ! Maximum Dry-Bulb Temperature {C}
  16.9,                                   ! Daily Dry-Bulb Temperature Range {deltaC}
  63600,                                  ! Humidity Indicating Conditions at Maximum Dry-Bulb {BasedOnField A3}
  100058,                                 ! Barometric Pressure {Pa}
  3.9,                                    ! Wind Speed {m/s}
  150,                                    ! Wind Direction {deg}
  0,                                      ! Sky Clearness
  0,                                      ! Rain Indicator
  0,                                      ! Snow Indicator
  21,                                     ! Day of Month
  7,                                      ! Month
  SummerDesignDay,                        ! Day Type
  0,                                      ! Daylight Saving Time Indicator
  Enthalpy,                               ! Humidity Indicating Type
  ,                                       ! Humidity Indicating Day Schedule Name
  DefaultMultipliers,                     ! Dry-Bulb Temperature Range Modifier Type
  ,                                       ! Dry-Bulb Temperature Range Modifier Schedule Name
  ASHRAETau,                              ! Solar Model Indicator
  ,                                       ! Beam Solar Day Schedule Name
  ,                                       ! Diffuse Solar Day Schedule Name
  0.364,                                  ! ASHRAE Taub {dimensionless}
  2.504;                                  ! ASHRAE Taud {dimensionless}

OS:ComponentData,
  {33861134-3d3b-4515-99e3-1afa281b77fc}, ! Handle
  Component Data 1,                       ! Name
  {26f601da-b94b-4a65-9012-a998504ef0fd}, ! UUID
  {f0b3c0f2-65c7-4cc4-80f1-c93db6e7bb91}, ! Version UUID
  1366306546,                             ! Creation Timestamp
  1366306546,                             ! Version Timestamp
  {d22b2e9e-4b81-4493-9c75-1f26b1fec814}; ! Name of Object 1

