
OS:Version,
  {dbbfe2f9-6f0e-4cbf-b2df-29a9674ea060}, ! Handle
  0.9.3;                                  ! Version Identifier

OS:SizingPeriod:DesignDay,
  {1e7ddff6-ec28-4214-850f-3e19df31d92e}, ! Handle
  Norfolk Ann Htg Wind 99% Condns WS=>MCDB, ! Name
  6.3,                                    ! Maximum Dry-Bulb Temperature {C}
  0,                                      ! Daily Dry-Bulb Temperature Range {deltaC}
  6.3,                                    ! Humidity Indicating Conditions at Maximum Dry-Bulb {BasedOnField A3}
  101217,                                 ! Barometric Pressure {Pa}
  11.6,                                   ! Wind Speed {m/s}
  0,                                      ! Wind Direction {deg}
  0,                                      ! Sky Clearness
  0,                                      ! Rain Indicator
  0,                                      ! Snow Indicator
  21,                                     ! Day of Month
  1,                                      ! Month
  WinterDesignDay,                        ! Day Type
  0,                                      ! Daylight Saving Time Indicator
  Wetbulb,                                ! Humidity Indicating Type
  ,                                       ! Humidity Indicating Day Schedule Name
  DefaultMultipliers,                     ! Dry-Bulb Temperature Range Modifier Type
  ,                                       ! Dry-Bulb Temperature Range Modifier Schedule Name
  ASHRAEClearSky;                         ! Solar Model Indicator

OS:ComponentData,
  {237b1a2d-8f1f-4523-98e9-f414ffd703ec}, ! Handle
  Component Data 1,                       ! Name
  {fb9bcd21-60ec-4ce8-ac1b-14b76df8b8c2}, ! UUID
  {4c1db755-ab92-4a62-bdc1-9249b7946530}, ! Version UUID
  1366311127,                             ! Creation Timestamp
  1366311127,                             ! Version Timestamp
  {1e7ddff6-ec28-4214-850f-3e19df31d92e}; ! Name of Object 1

