
OS:Version,
  {fad0ac97-c9f8-4151-9755-b9cfdecbca34}, ! Handle
  0.9.3;                                  ! Version Identifier

OS:SizingPeriod:DesignDay,
  {493f5479-3c59-4ed2-a29e-187ec03e93a5}, ! Handle
  Mountain View Moffett Fld Nas Ann Clg .4% Condns WB=>MDB, ! Name
  28.1,                                   ! Maximum Dry-Bulb Temperature {C}
  9.5,                                    ! Daily Dry-Bulb Temperature Range {deltaC}
  20.3,                                   ! Humidity Indicating Conditions at Maximum Dry-Bulb {BasedOnField A3}
  101181,                                 ! Barometric Pressure {Pa}
  3.9,                                    ! Wind Speed {m/s}
  340,                                    ! Wind Direction {deg}
  0,                                      ! Sky Clearness
  0,                                      ! Rain Indicator
  0,                                      ! Snow Indicator
  21,                                     ! Day of Month
  7,                                      ! Month
  SummerDesignDay,                        ! Day Type
  0,                                      ! Daylight Saving Time Indicator
  Wetbulb,                                ! Humidity Indicating Type
  ,                                       ! Humidity Indicating Day Schedule Name
  DefaultMultipliers,                     ! Dry-Bulb Temperature Range Modifier Type
  ,                                       ! Dry-Bulb Temperature Range Modifier Schedule Name
  ASHRAETau,                              ! Solar Model Indicator
  ,                                       ! Beam Solar Day Schedule Name
  ,                                       ! Diffuse Solar Day Schedule Name
  0.378,                                  ! ASHRAE Taub {dimensionless}
  2.37;                                   ! ASHRAE Taud {dimensionless}

OS:ComponentData,
  {f3f80577-e819-4b03-9df9-f6605954dfa7}, ! Handle
  Component Data 1,                       ! Name
  {aac50a47-c3c4-4c1e-ae2e-b8b4ae2bc01d}, ! UUID
  {a23fac88-556a-47c2-8a50-538d215a792b}, ! Version UUID
  1366306513,                             ! Creation Timestamp
  1366306513,                             ! Version Timestamp
  {493f5479-3c59-4ed2-a29e-187ec03e93a5}; ! Name of Object 1

