
OS:Version,
  {e9f69888-a823-4118-a335-8ce51aa5454f}, ! Handle
  0.9.3;                                  ! Version Identifier

OS:SizingPeriod:DesignDay,
  {d8b71309-15f3-4417-85f0-6532ab0aa35c}, ! Handle
  Savannah Intl Ap Ann Clg .4% Condns WB=>MDB, ! Name
  32,                                     ! Maximum Dry-Bulb Temperature {C}
  10,                                     ! Daily Dry-Bulb Temperature Range {deltaC}
  26.8,                                   ! Humidity Indicating Conditions at Maximum Dry-Bulb {BasedOnField A3}
  101157,                                 ! Barometric Pressure {Pa}
  3.7,                                    ! Wind Speed {m/s}
  290,                                    ! Wind Direction {deg}
  0,                                      ! Sky Clearness
  0,                                      ! Rain Indicator
  0,                                      ! Snow Indicator
  21,                                     ! Day of Month
  7,                                      ! Month
  SummerDesignDay,                        ! Day Type
  0,                                      ! Daylight Saving Time Indicator
  Wetbulb,                                ! Humidity Indicating Type
  ,                                       ! Humidity Indicating Day Schedule Name
  DefaultMultipliers,                     ! Dry-Bulb Temperature Range Modifier Type
  ,                                       ! Dry-Bulb Temperature Range Modifier Schedule Name
  ASHRAETau,                              ! Solar Model Indicator
  ,                                       ! Beam Solar Day Schedule Name
  ,                                       ! Diffuse Solar Day Schedule Name
  0.558,                                  ! ASHRAE Taub {dimensionless}
  1.811;                                  ! ASHRAE Taud {dimensionless}

OS:ComponentData,
  {1b285fc7-4e98-4ec0-b785-5379ae67e6e7}, ! Handle
  Component Data 1,                       ! Name
  {fc2db905-21f1-4ab6-9383-e74b6663b9ca}, ! UUID
  {02f69b6e-a099-4026-a5c9-d5702da7a6dd}, ! Version UUID
  1366307056,                             ! Creation Timestamp
  1366307056,                             ! Version Timestamp
  {d8b71309-15f3-4417-85f0-6532ab0aa35c}; ! Name of Object 1

