
OS:Version,
  {2fd71f21-f2cf-46cf-ab2e-e91ef3429b49}, ! Handle
  0.9.3;                                  ! Version Identifier

OS:SizingPeriod:DesignDay,
  {0a3cf114-17d0-427f-8602-6adfaa8880be}, ! Handle
  Medford Rogue Valley Intl Ap Ann Clg 2% Condns WB=>MDB, ! Name
  31.5,                                   ! Maximum Dry-Bulb Temperature {C}
  17.9,                                   ! Daily Dry-Bulb Temperature Range {deltaC}
  18.9,                                   ! Humidity Indicating Conditions at Maximum Dry-Bulb {BasedOnField A3}
  94378,                                  ! Barometric Pressure {Pa}
  3.9,                                    ! Wind Speed {m/s}
  290,                                    ! Wind Direction {deg}
  0,                                      ! Sky Clearness
  0,                                      ! Rain Indicator
  0,                                      ! Snow Indicator
  21,                                     ! Day of Month
  7,                                      ! Month
  SummerDesignDay,                        ! Day Type
  0,                                      ! Daylight Saving Time Indicator
  Wetbulb,                                ! Humidity Indicating Type
  ,                                       ! Humidity Indicating Day Schedule Name
  DefaultMultipliers,                     ! Dry-Bulb Temperature Range Modifier Type
  ,                                       ! Dry-Bulb Temperature Range Modifier Schedule Name
  ASHRAETau,                              ! Solar Model Indicator
  ,                                       ! Beam Solar Day Schedule Name
  ,                                       ! Diffuse Solar Day Schedule Name
  0.356,                                  ! ASHRAE Taub {dimensionless}
  2.582;                                  ! ASHRAE Taud {dimensionless}

OS:ComponentData,
  {212d4494-448d-42d9-a553-7d3a35f91e7c}, ! Handle
  Component Data 1,                       ! Name
  {0058d047-a6a0-42ed-af3c-aa722fac2513}, ! UUID
  {01ba2064-abe8-428b-b3c6-023f729142ff}, ! Version UUID
  1366310036,                             ! Creation Timestamp
  1366310036,                             ! Version Timestamp
  {0a3cf114-17d0-427f-8602-6adfaa8880be}; ! Name of Object 1

