
OS:Version,
  {39283f4e-ae7a-48f9-a000-397286f43e9b}, ! Handle
  0.9.3;                                  ! Version Identifier

OS:SizingPeriod:DesignDay,
  {1a30d63c-1eeb-4bba-9f3b-62c021e6a444}, ! Handle
  San Antonio Stinson Ann Clg .4% Condns DP=>MDB, ! Name
  28,                                     ! Maximum Dry-Bulb Temperature {C}
  11.7,                                   ! Daily Dry-Bulb Temperature Range {deltaC}
  25,                                     ! Humidity Indicating Conditions at Maximum Dry-Bulb {BasedOnField A3}
  99228,                                  ! Barometric Pressure {Pa}
  4.4,                                    ! Wind Speed {m/s}
  130,                                    ! Wind Direction {deg}
  0,                                      ! Sky Clearness
  0,                                      ! Rain Indicator
  0,                                      ! Snow Indicator
  21,                                     ! Day of Month
  8,                                      ! Month
  SummerDesignDay,                        ! Day Type
  0,                                      ! Daylight Saving Time Indicator
  Dewpoint,                               ! Humidity Indicating Type
  ,                                       ! Humidity Indicating Day Schedule Name
  DefaultMultipliers,                     ! Dry-Bulb Temperature Range Modifier Type
  ,                                       ! Dry-Bulb Temperature Range Modifier Schedule Name
  ASHRAETau,                              ! Solar Model Indicator
  ,                                       ! Beam Solar Day Schedule Name
  ,                                       ! Diffuse Solar Day Schedule Name
  0.454,                                  ! ASHRAE Taub {dimensionless}
  2.127;                                  ! ASHRAE Taud {dimensionless}

OS:ComponentData,
  {f7a08bb1-5566-4bad-bc94-c96d5cf1b723}, ! Handle
  Component Data 1,                       ! Name
  {1a32b9f9-e607-4ba3-8ee2-19c6f82b9974}, ! UUID
  {d038b352-ed75-4fc4-a786-58b088ddb9a3}, ! Version UUID
  1366310887,                             ! Creation Timestamp
  1366310887,                             ! Version Timestamp
  {1a30d63c-1eeb-4bba-9f3b-62c021e6a444}; ! Name of Object 1

