
OS:Version,
  {9ca806a1-0225-451f-a038-38a2d641b297}, ! Handle
  0.9.3;                                  ! Version Identifier

OS:SizingPeriod:DesignDay,
  {bffaed8f-4bca-4b97-bd5a-ffd8465b5404}, ! Handle
  New Orleans Intl Arpt Ann Htg Wind 99% Condns WS=>MCDB, ! Name
  11.3,                                   ! Maximum Dry-Bulb Temperature {C}
  0,                                      ! Daily Dry-Bulb Temperature Range {deltaC}
  11.3,                                   ! Humidity Indicating Conditions at Maximum Dry-Bulb {BasedOnField A3}
  101313,                                 ! Barometric Pressure {Pa}
  9.4,                                    ! Wind Speed {m/s}
  10,                                     ! Wind Direction {deg}
  0,                                      ! Sky Clearness
  0,                                      ! Rain Indicator
  0,                                      ! Snow Indicator
  21,                                     ! Day of Month
  1,                                      ! Month
  WinterDesignDay,                        ! Day Type
  0,                                      ! Daylight Saving Time Indicator
  Wetbulb,                                ! Humidity Indicating Type
  ,                                       ! Humidity Indicating Day Schedule Name
  DefaultMultipliers,                     ! Dry-Bulb Temperature Range Modifier Type
  ,                                       ! Dry-Bulb Temperature Range Modifier Schedule Name
  ASHRAEClearSky;                         ! Solar Model Indicator

OS:ComponentData,
  {0256c0f1-6ca1-4e8e-abd2-bbaf484c7f9d}, ! Handle
  Component Data 1,                       ! Name
  {39e41f7e-f803-4d93-bb8a-1815ea4bf840}, ! UUID
  {293a88b1-fe28-4ae2-af26-3bb0dd60f68a}, ! Version UUID
  1366307754,                             ! Creation Timestamp
  1366307754,                             ! Version Timestamp
  {bffaed8f-4bca-4b97-bd5a-ffd8465b5404}; ! Name of Object 1

