
OS:Version,
  {e099d8b2-ff0a-4472-ab24-f4b10723b477}, ! Handle
  0.9.3;                                  ! Version Identifier

OS:SizingPeriod:DesignDay,
  {982045a1-5971-4b2e-a932-3abf74161c30}, ! Handle
  Petersburg Ann Hum_n 99% Condns DP=>MCDB, ! Name
  -8.6,                                   ! Maximum Dry-Bulb Temperature {C}
  0,                                      ! Daily Dry-Bulb Temperature Range {deltaC}
  -15.1,                                  ! Humidity Indicating Conditions at Maximum Dry-Bulb {BasedOnField A3}
  100929,                                 ! Barometric Pressure {Pa}
  1.3,                                    ! Wind Speed {m/s}
  250,                                    ! Wind Direction {deg}
  0,                                      ! Sky Clearness
  0,                                      ! Rain Indicator
  0,                                      ! Snow Indicator
  21,                                     ! Day of Month
  1,                                      ! Month
  WinterDesignDay,                        ! Day Type
  0,                                      ! Daylight Saving Time Indicator
  Dewpoint,                               ! Humidity Indicating Type
  ,                                       ! Humidity Indicating Day Schedule Name
  DefaultMultipliers,                     ! Dry-Bulb Temperature Range Modifier Type
  ,                                       ! Dry-Bulb Temperature Range Modifier Schedule Name
  ASHRAEClearSky;                         ! Solar Model Indicator

OS:ComponentData,
  {e710e61f-dc42-4665-adcb-2c50c4c6d849}, ! Handle
  Component Data 1,                       ! Name
  {7799f3e0-491a-4dac-99c6-bcb855abac35}, ! UUID
  {0af13e82-084f-4099-b94e-6b685bd8ffb8}, ! Version UUID
  1366305481,                             ! Creation Timestamp
  1366305481,                             ! Version Timestamp
  {982045a1-5971-4b2e-a932-3abf74161c30}; ! Name of Object 1

