
OS:Version,
  {5d63a575-0221-4c10-b653-c65529c7f758}, ! Handle
  0.9.3;                                  ! Version Identifier

OS:SizingPeriod:DesignDay,
  {94a937fe-b72d-4376-b772-7b97dde3cc31}, ! Handle
  Memphis Ann Clg 1% Condns WB=>MDB,      ! Name
  32.2,                                   ! Maximum Dry-Bulb Temperature {C}
  9.2,                                    ! Daily Dry-Bulb Temperature Range {deltaC}
  26.2,                                   ! Humidity Indicating Conditions at Maximum Dry-Bulb {BasedOnField A3}
  100284,                                 ! Barometric Pressure {Pa}
  3.8,                                    ! Wind Speed {m/s}
  240,                                    ! Wind Direction {deg}
  0,                                      ! Sky Clearness
  0,                                      ! Rain Indicator
  0,                                      ! Snow Indicator
  21,                                     ! Day of Month
  7,                                      ! Month
  SummerDesignDay,                        ! Day Type
  0,                                      ! Daylight Saving Time Indicator
  Wetbulb,                                ! Humidity Indicating Type
  ,                                       ! Humidity Indicating Day Schedule Name
  DefaultMultipliers,                     ! Dry-Bulb Temperature Range Modifier Type
  ,                                       ! Dry-Bulb Temperature Range Modifier Schedule Name
  ASHRAETau,                              ! Solar Model Indicator
  ,                                       ! Beam Solar Day Schedule Name
  ,                                       ! Diffuse Solar Day Schedule Name
  0.512,                                  ! ASHRAE Taub {dimensionless}
  1.892;                                  ! ASHRAE Taud {dimensionless}

OS:ComponentData,
  {6ed948ff-ceb4-4f76-8f41-797e56799f62}, ! Handle
  Component Data 1,                       ! Name
  {6053c894-31a1-4a50-9659-d692d9eea9e2}, ! UUID
  {de7d8189-c4c8-4b04-aa8e-a24362415f62}, ! Version UUID
  1366310525,                             ! Creation Timestamp
  1366310525,                             ! Version Timestamp
  {94a937fe-b72d-4376-b772-7b97dde3cc31}; ! Name of Object 1

