
OS:Version,
  {fce4e281-3baf-44ce-97da-47020489f029}, ! Handle
  0.9.3;                                  ! Version Identifier

OS:SizingPeriod:DesignDay,
  {ad8e92b0-77d1-4931-b6e3-1e992bb1ce8b}, ! Handle
  SALEM Ann Htg 99.6% Condns DB,          ! Name
  -5.6,                                   ! Maximum Dry-Bulb Temperature {C}
  0,                                      ! Daily Dry-Bulb Temperature Range {deltaC}
  -5.6,                                   ! Humidity Indicating Conditions at Maximum Dry-Bulb {BasedOnField A3}
  100594,                                 ! Barometric Pressure {Pa}
  2.1,                                    ! Wind Speed {m/s}
  0,                                      ! Wind Direction {deg}
  0,                                      ! Sky Clearness
  0,                                      ! Rain Indicator
  0,                                      ! Snow Indicator
  21,                                     ! Day of Month
  12,                                     ! Month
  WinterDesignDay,                        ! Day Type
  0,                                      ! Daylight Saving Time Indicator
  Wetbulb,                                ! Humidity Indicating Type
  ,                                       ! Humidity Indicating Day Schedule Name
  DefaultMultipliers,                     ! Dry-Bulb Temperature Range Modifier Type
  ,                                       ! Dry-Bulb Temperature Range Modifier Schedule Name
  ASHRAEClearSky;                         ! Solar Model Indicator

OS:ComponentData,
  {6bf861ae-899a-40ff-889a-ae3d08a50a4b}, ! Handle
  Component Data 1,                       ! Name
  {9e8bd1fa-964f-4a07-b82d-c934cc1ef562}, ! UUID
  {57b6aca2-8695-4e2a-b0c9-8ad3cb827e2d}, ! Version UUID
  1366310116,                             ! Creation Timestamp
  1366310116,                             ! Version Timestamp
  {ad8e92b0-77d1-4931-b6e3-1e992bb1ce8b}; ! Name of Object 1

