
OS:Version,
  {dac8f100-0c3a-4cc0-9211-6b448cc6a8ba}, ! Handle
  0.9.3;                                  ! Version Identifier

OS:SizingPeriod:DesignDay,
  {236d3135-efbc-4d6a-9af2-62f4eb96c0de}, ! Handle
  MINOT Ann Clg 1% Condns Enth=>MDB,      ! Name
  28,                                     ! Maximum Dry-Bulb Temperature {C}
  12.2,                                   ! Daily Dry-Bulb Temperature Range {deltaC}
  66100,                                  ! Humidity Indicating Conditions at Maximum Dry-Bulb {BasedOnField A3}
  95209,                                  ! Barometric Pressure {Pa}
  5.8,                                    ! Wind Speed {m/s}
  160,                                    ! Wind Direction {deg}
  0,                                      ! Sky Clearness
  0,                                      ! Rain Indicator
  0,                                      ! Snow Indicator
  21,                                     ! Day of Month
  7,                                      ! Month
  SummerDesignDay,                        ! Day Type
  0,                                      ! Daylight Saving Time Indicator
  Enthalpy,                               ! Humidity Indicating Type
  ,                                       ! Humidity Indicating Day Schedule Name
  DefaultMultipliers,                     ! Dry-Bulb Temperature Range Modifier Type
  ,                                       ! Dry-Bulb Temperature Range Modifier Schedule Name
  ASHRAETau,                              ! Solar Model Indicator
  ,                                       ! Beam Solar Day Schedule Name
  ,                                       ! Diffuse Solar Day Schedule Name
  0.386,                                  ! ASHRAE Taub {dimensionless}
  2.249;                                  ! ASHRAE Taud {dimensionless}

OS:ComponentData,
  {7b7d74e5-0bfe-49ad-babb-ae0a9a1dbadc}, ! Handle
  Component Data 1,                       ! Name
  {b2100cc2-c2f4-4e41-8fab-f97e8fe9cd5b}, ! UUID
  {7f9c08a6-2069-402e-8cbb-d2c2283264a2}, ! Version UUID
  1366309056,                             ! Creation Timestamp
  1366309056,                             ! Version Timestamp
  {236d3135-efbc-4d6a-9af2-62f4eb96c0de}; ! Name of Object 1

