
OS:Version,
  {7aaa44bc-b97f-49c0-8876-388574699941}, ! Handle
  0.9.3;                                  ! Version Identifier

OS:SizingPeriod:DesignDay,
  {a9698817-fb7c-4233-a818-cbfbe80f85c3}, ! Handle
  Winnemucca Ann Htg 99% Condns DB,       ! Name
  -13.2,                                  ! Maximum Dry-Bulb Temperature {C}
  0,                                      ! Daily Dry-Bulb Temperature Range {deltaC}
  -13.2,                                  ! Humidity Indicating Conditions at Maximum Dry-Bulb {BasedOnField A3}
  86493,                                  ! Barometric Pressure {Pa}
  2,                                      ! Wind Speed {m/s}
  160,                                    ! Wind Direction {deg}
  0,                                      ! Sky Clearness
  0,                                      ! Rain Indicator
  0,                                      ! Snow Indicator
  21,                                     ! Day of Month
  12,                                     ! Month
  WinterDesignDay,                        ! Day Type
  0,                                      ! Daylight Saving Time Indicator
  Wetbulb,                                ! Humidity Indicating Type
  ,                                       ! Humidity Indicating Day Schedule Name
  DefaultMultipliers,                     ! Dry-Bulb Temperature Range Modifier Type
  ,                                       ! Dry-Bulb Temperature Range Modifier Schedule Name
  ASHRAEClearSky;                         ! Solar Model Indicator

OS:ComponentData,
  {2d112dd9-5575-4a2c-a036-3f65839d77cb}, ! Handle
  Component Data 1,                       ! Name
  {03df7fd3-d222-43aa-a6e5-1ba60f656520}, ! UUID
  {2766beb5-50c7-4f09-8192-0d6694947f0d}, ! Version UUID
  1366309563,                             ! Creation Timestamp
  1366309563,                             ! Version Timestamp
  {a9698817-fb7c-4233-a818-cbfbe80f85c3}; ! Name of Object 1

