
OS:Version,
  {66cfaefa-7ce0-4d94-b6a3-82cc093b93dd}, ! Handle
  0.9.3;                                  ! Version Identifier

OS:SizingPeriod:DesignDay,
  {37065a7d-c539-45eb-bc1d-55bd6c93b1db}, ! Handle
  Parkersburg Wood County Ap Ann Clg .4% Condns Enth=>MDB, ! Name
  30.3,                                   ! Maximum Dry-Bulb Temperature {C}
  10.8,                                   ! Daily Dry-Bulb Temperature Range {deltaC}
  76600,                                  ! Humidity Indicating Conditions at Maximum Dry-Bulb {BasedOnField A3}
  98322,                                  ! Barometric Pressure {Pa}
  3.4,                                    ! Wind Speed {m/s}
  250,                                    ! Wind Direction {deg}
  0,                                      ! Sky Clearness
  0,                                      ! Rain Indicator
  0,                                      ! Snow Indicator
  21,                                     ! Day of Month
  7,                                      ! Month
  SummerDesignDay,                        ! Day Type
  0,                                      ! Daylight Saving Time Indicator
  Enthalpy,                               ! Humidity Indicating Type
  ,                                       ! Humidity Indicating Day Schedule Name
  DefaultMultipliers,                     ! Dry-Bulb Temperature Range Modifier Type
  ,                                       ! Dry-Bulb Temperature Range Modifier Schedule Name
  ASHRAETau,                              ! Solar Model Indicator
  ,                                       ! Beam Solar Day Schedule Name
  ,                                       ! Diffuse Solar Day Schedule Name
  0.5,                                    ! ASHRAE Taub {dimensionless}
  1.892;                                  ! ASHRAE Taud {dimensionless}

OS:ComponentData,
  {bbb881ef-2b51-45a3-bf41-aa2dcafef08b}, ! Handle
  Component Data 1,                       ! Name
  {acdd6596-9190-4b4e-8c9d-52c4deeeb5e2}, ! UUID
  {402e70d7-dcae-49cd-a830-745725784d79}, ! Version UUID
  1366311677,                             ! Creation Timestamp
  1366311677,                             ! Version Timestamp
  {37065a7d-c539-45eb-bc1d-55bd6c93b1db}; ! Name of Object 1

