
OS:Version,
  {d5cadf54-089b-4289-bc6f-e9843f918772}, ! Handle
  0.9.3;                                  ! Version Identifier

OS:SizingPeriod:DesignDay,
  {07d0304e-2359-4506-afdc-cb6e808bd4a2}, ! Handle
  Maxwell Afb Ann Hum_n 99% Condns DP=>MCDB, ! Name
  3.8,                                    ! Maximum Dry-Bulb Temperature {C}
  0,                                      ! Daily Dry-Bulb Temperature Range {deltaC}
  -8.2,                                   ! Humidity Indicating Conditions at Maximum Dry-Bulb {BasedOnField A3}
  100690,                                 ! Barometric Pressure {Pa}
  2.4,                                    ! Wind Speed {m/s}
  340,                                    ! Wind Direction {deg}
  0,                                      ! Sky Clearness
  0,                                      ! Rain Indicator
  0,                                      ! Snow Indicator
  21,                                     ! Day of Month
  1,                                      ! Month
  WinterDesignDay,                        ! Day Type
  0,                                      ! Daylight Saving Time Indicator
  Dewpoint,                               ! Humidity Indicating Type
  ,                                       ! Humidity Indicating Day Schedule Name
  DefaultMultipliers,                     ! Dry-Bulb Temperature Range Modifier Type
  ,                                       ! Dry-Bulb Temperature Range Modifier Schedule Name
  ASHRAEClearSky;                         ! Solar Model Indicator

OS:ComponentData,
  {1db5e515-c950-4a34-aec5-f6cfbdfde837}, ! Handle
  Component Data 1,                       ! Name
  {6de790fb-bbad-4537-a470-20e5412565ad}, ! UUID
  {f326c736-93c4-4c6d-a736-90fe57b5ade2}, ! Version UUID
  1366305689,                             ! Creation Timestamp
  1366305689,                             ! Version Timestamp
  {07d0304e-2359-4506-afdc-cb6e808bd4a2}; ! Name of Object 1

