
OS:Version,
  {fd419a3c-48e8-428e-b058-a6513f5b05b8}, ! Handle
  0.9.3;                                  ! Version Identifier

OS:SizingPeriod:DesignDay,
  {0233947f-805e-476b-90bf-aa82cb03c4a7}, ! Handle
  QUILLAYUTE Ann Htg 99% Condns DB,       ! Name
  -2.7,                                   ! Maximum Dry-Bulb Temperature {C}
  0,                                      ! Daily Dry-Bulb Temperature Range {deltaC}
  -2.7,                                   ! Humidity Indicating Conditions at Maximum Dry-Bulb {BasedOnField A3}
  100666,                                 ! Barometric Pressure {Pa}
  2.3,                                    ! Wind Speed {m/s}
  50,                                     ! Wind Direction {deg}
  0,                                      ! Sky Clearness
  0,                                      ! Rain Indicator
  0,                                      ! Snow Indicator
  21,                                     ! Day of Month
  12,                                     ! Month
  WinterDesignDay,                        ! Day Type
  0,                                      ! Daylight Saving Time Indicator
  Wetbulb,                                ! Humidity Indicating Type
  ,                                       ! Humidity Indicating Day Schedule Name
  DefaultMultipliers,                     ! Dry-Bulb Temperature Range Modifier Type
  ,                                       ! Dry-Bulb Temperature Range Modifier Schedule Name
  ASHRAEClearSky;                         ! Solar Model Indicator

OS:ComponentData,
  {edea6a6b-62e9-4437-8e06-a3605e5840ec}, ! Handle
  Component Data 1,                       ! Name
  {e502997d-85d6-478c-8926-7dade4358fea}, ! UUID
  {f0a23248-8ea8-4a36-a3bc-734dce2f496d}, ! Version UUID
  1366311335,                             ! Creation Timestamp
  1366311335,                             ! Version Timestamp
  {0233947f-805e-476b-90bf-aa82cb03c4a7}; ! Name of Object 1

