
OS:Version,
  {4d1a97e4-59eb-4681-990a-020062452196}, ! Handle
  0.9.3;                                  ! Version Identifier

OS:SizingPeriod:DesignDay,
  {3b8efd50-5d84-45d1-8cff-518e7eae4673}, ! Handle
  Nenana Municipal Ap Ann Htg Wind 99% Condns WS=>MCDB, ! Name
  -15.2,                                  ! Maximum Dry-Bulb Temperature {C}
  0,                                      ! Daily Dry-Bulb Temperature Range {deltaC}
  -15.2,                                  ! Humidity Indicating Conditions at Maximum Dry-Bulb {BasedOnField A3}
  100022,                                 ! Barometric Pressure {Pa}
  9.1,                                    ! Wind Speed {m/s}
  250,                                    ! Wind Direction {deg}
  0,                                      ! Sky Clearness
  0,                                      ! Rain Indicator
  0,                                      ! Snow Indicator
  21,                                     ! Day of Month
  1,                                      ! Month
  WinterDesignDay,                        ! Day Type
  0,                                      ! Daylight Saving Time Indicator
  Wetbulb,                                ! Humidity Indicating Type
  ,                                       ! Humidity Indicating Day Schedule Name
  DefaultMultipliers,                     ! Dry-Bulb Temperature Range Modifier Type
  ,                                       ! Dry-Bulb Temperature Range Modifier Schedule Name
  ASHRAEClearSky;                         ! Solar Model Indicator

OS:ComponentData,
  {932f1839-8a92-40c4-9b46-5900b5666641}, ! Handle
  Component Data 1,                       ! Name
  {f3983612-3900-4c00-ba8d-d64c255efcf9}, ! UUID
  {b111a8f8-a4dd-4c7c-92e7-11d2928034e7}, ! Version UUID
  1366305440,                             ! Creation Timestamp
  1366305440,                             ! Version Timestamp
  {3b8efd50-5d84-45d1-8cff-518e7eae4673}; ! Name of Object 1

