
OS:Version,
  {07ba5e63-dd47-453f-9bdb-3c124453b395}, ! Handle
  0.9.3;                                  ! Version Identifier

OS:SizingPeriod:DesignDay,
  {33b2baba-993d-433e-af56-50a841bc57f7}, ! Handle
  SPRINGFIELD Ann Clg 2% Condns Enth=>MDB, ! Name
  29.5,                                   ! Maximum Dry-Bulb Temperature {C}
  10.7,                                   ! Daily Dry-Bulb Temperature Range {deltaC}
  75400,                                  ! Humidity Indicating Conditions at Maximum Dry-Bulb {BasedOnField A3}
  99099,                                  ! Barometric Pressure {Pa}
  4.6,                                    ! Wind Speed {m/s}
  230,                                    ! Wind Direction {deg}
  0,                                      ! Sky Clearness
  0,                                      ! Rain Indicator
  0,                                      ! Snow Indicator
  21,                                     ! Day of Month
  7,                                      ! Month
  SummerDesignDay,                        ! Day Type
  0,                                      ! Daylight Saving Time Indicator
  Enthalpy,                               ! Humidity Indicating Type
  ,                                       ! Humidity Indicating Day Schedule Name
  DefaultMultipliers,                     ! Dry-Bulb Temperature Range Modifier Type
  ,                                       ! Dry-Bulb Temperature Range Modifier Schedule Name
  ASHRAETau,                              ! Solar Model Indicator
  ,                                       ! Beam Solar Day Schedule Name
  ,                                       ! Diffuse Solar Day Schedule Name
  0.463,                                  ! ASHRAE Taub {dimensionless}
  2.022;                                  ! ASHRAE Taud {dimensionless}

OS:ComponentData,
  {381db85c-a3cd-442e-8e59-51fb9e6cee8b}, ! Handle
  Component Data 1,                       ! Name
  {2206576f-f60c-4ec2-8f22-7eee06840427}, ! UUID
  {26653659-37c9-4f43-ad29-7690b1827586}, ! Version UUID
  1366307410,                             ! Creation Timestamp
  1366307410,                             ! Version Timestamp
  {33b2baba-993d-433e-af56-50a841bc57f7}; ! Name of Object 1

