
OS:Version,
  {2605cf2b-ea43-4701-9d50-96c361335747}, ! Handle
  0.9.3;                                  ! Version Identifier

OS:SizingPeriod:DesignDay,
  {a2e0e286-276e-4b4d-9fbc-3c0f18e36810}, ! Handle
  MINNEAPOLIS Ann Clg 1% Condns WB=>MDB,  ! Name
  29,                                     ! Maximum Dry-Bulb Temperature {C}
  9.9,                                    ! Daily Dry-Bulb Temperature Range {deltaC}
  23.9,                                   ! Humidity Indicating Conditions at Maximum Dry-Bulb {BasedOnField A3}
  98299,                                  ! Barometric Pressure {Pa}
  6,                                      ! Wind Speed {m/s}
  180,                                    ! Wind Direction {deg}
  0,                                      ! Sky Clearness
  0,                                      ! Rain Indicator
  0,                                      ! Snow Indicator
  21,                                     ! Day of Month
  7,                                      ! Month
  SummerDesignDay,                        ! Day Type
  0,                                      ! Daylight Saving Time Indicator
  Wetbulb,                                ! Humidity Indicating Type
  ,                                       ! Humidity Indicating Day Schedule Name
  DefaultMultipliers,                     ! Dry-Bulb Temperature Range Modifier Type
  ,                                       ! Dry-Bulb Temperature Range Modifier Schedule Name
  ASHRAETau,                              ! Solar Model Indicator
  ,                                       ! Beam Solar Day Schedule Name
  ,                                       ! Diffuse Solar Day Schedule Name
  0.416,                                  ! ASHRAE Taub {dimensionless}
  2.18;                                   ! ASHRAE Taud {dimensionless}

OS:ComponentData,
  {ccc448aa-3df8-4772-8d0c-fffbb75584f3}, ! Handle
  Component Data 1,                       ! Name
  {00ee6fab-2b10-41a4-896b-1d16d62fb811}, ! UUID
  {dfabaa13-c849-4924-9777-b64545db5ae9}, ! Version UUID
  1366308312,                             ! Creation Timestamp
  1366308312,                             ! Version Timestamp
  {a2e0e286-276e-4b4d-9fbc-3c0f18e36810}; ! Name of Object 1

