
OS:Version,
  {6eabb071-baae-4b1b-9178-74e996313ec2}, ! Handle
  0.9.3;                                  ! Version Identifier

OS:SizingPeriod:DesignDay,
  {9d60ac52-88d0-4906-95f0-86a137aec164}, ! Handle
  Washington Ann Clg .4% Condns Enth=>MDB, ! Name
  31.8,                                   ! Maximum Dry-Bulb Temperature {C}
  10.8,                                   ! Daily Dry-Bulb Temperature Range {deltaC}
  91200,                                  ! Humidity Indicating Conditions at Maximum Dry-Bulb {BasedOnField A3}
  98592,                                  ! Barometric Pressure {Pa}
  4.4,                                    ! Wind Speed {m/s}
  200,                                    ! Wind Direction {deg}
  0,                                      ! Sky Clearness
  0,                                      ! Rain Indicator
  0,                                      ! Snow Indicator
  21,                                     ! Day of Month
  7,                                      ! Month
  SummerDesignDay,                        ! Day Type
  0,                                      ! Daylight Saving Time Indicator
  Enthalpy,                               ! Humidity Indicating Type
  ,                                       ! Humidity Indicating Day Schedule Name
  DefaultMultipliers,                     ! Dry-Bulb Temperature Range Modifier Type
  ,                                       ! Dry-Bulb Temperature Range Modifier Schedule Name
  ASHRAETau,                              ! Solar Model Indicator
  ,                                       ! Beam Solar Day Schedule Name
  ,                                       ! Diffuse Solar Day Schedule Name
  0.446,                                  ! ASHRAE Taub {dimensionless}
  2.081;                                  ! ASHRAE Taud {dimensionless}

OS:ComponentData,
  {5a61b279-ad29-4361-8928-45c7d39abd8a}, ! Handle
  Component Data 1,                       ! Name
  {e0bee303-158a-4d50-829a-74ec50d26974}, ! UUID
  {2dccb730-e0e3-407d-8885-b22f18f547a8}, ! Version UUID
  1366307249,                             ! Creation Timestamp
  1366307249,                             ! Version Timestamp
  {9d60ac52-88d0-4906-95f0-86a137aec164}; ! Name of Object 1

