
OS:Version,
  {cbdad1d4-b3e3-4880-825d-9f91ad1f3e48}, ! Handle
  0.9.3;                                  ! Version Identifier

OS:SizingPeriod:DesignDay,
  {0bf1944c-ca0d-4207-bd04-e3ac68cc142e}, ! Handle
  Unalakleet Field Ann Clg .4% Condns DP=>MDB, ! Name
  17.8,                                   ! Maximum Dry-Bulb Temperature {C}
  5.6,                                    ! Daily Dry-Bulb Temperature Range {deltaC}
  13.3,                                   ! Humidity Indicating Conditions at Maximum Dry-Bulb {BasedOnField A3}
  101265,                                 ! Barometric Pressure {Pa}
  4.5,                                    ! Wind Speed {m/s}
  330,                                    ! Wind Direction {deg}
  0,                                      ! Sky Clearness
  0,                                      ! Rain Indicator
  0,                                      ! Snow Indicator
  21,                                     ! Day of Month
  7,                                      ! Month
  SummerDesignDay,                        ! Day Type
  0,                                      ! Daylight Saving Time Indicator
  Dewpoint,                               ! Humidity Indicating Type
  ,                                       ! Humidity Indicating Day Schedule Name
  DefaultMultipliers,                     ! Dry-Bulb Temperature Range Modifier Type
  ,                                       ! Dry-Bulb Temperature Range Modifier Schedule Name
  ASHRAETau,                              ! Solar Model Indicator
  ,                                       ! Beam Solar Day Schedule Name
  ,                                       ! Diffuse Solar Day Schedule Name
  0.388,                                  ! ASHRAE Taub {dimensionless}
  2.192;                                  ! ASHRAE Taud {dimensionless}

OS:ComponentData,
  {e29c9fbf-ae9d-447b-a871-e1f78adb36af}, ! Handle
  Component Data 1,                       ! Name
  {3785e7a8-60ab-4cf4-b2c1-af1f6ed4b721}, ! UUID
  {a0790b72-9d4f-42cc-8d93-7e7e91482923}, ! Version UUID
  1366305600,                             ! Creation Timestamp
  1366305600,                             ! Version Timestamp
  {0bf1944c-ca0d-4207-bd04-e3ac68cc142e}; ! Name of Object 1

