
OS:Version,
  {cc07cb00-b066-4b00-8e71-11172918b3f0}, ! Handle
  0.9.3;                                  ! Version Identifier

OS:SizingPeriod:DesignDay,
  {c82bf867-ae13-44c7-b9a2-44b6608a433a}, ! Handle
  Pellston Emmet County Ap Ann Htg 99.6% Condns DB, ! Name
  -23.6,                                  ! Maximum Dry-Bulb Temperature {C}
  0,                                      ! Daily Dry-Bulb Temperature Range {deltaC}
  -23.6,                                  ! Humidity Indicating Conditions at Maximum Dry-Bulb {BasedOnField A3}
  98733,                                  ! Barometric Pressure {Pa}
  1.1,                                    ! Wind Speed {m/s}
  290,                                    ! Wind Direction {deg}
  0,                                      ! Sky Clearness
  0,                                      ! Rain Indicator
  0,                                      ! Snow Indicator
  21,                                     ! Day of Month
  1,                                      ! Month
  WinterDesignDay,                        ! Day Type
  0,                                      ! Daylight Saving Time Indicator
  Wetbulb,                                ! Humidity Indicating Type
  ,                                       ! Humidity Indicating Day Schedule Name
  DefaultMultipliers,                     ! Dry-Bulb Temperature Range Modifier Type
  ,                                       ! Dry-Bulb Temperature Range Modifier Schedule Name
  ASHRAEClearSky;                         ! Solar Model Indicator

OS:ComponentData,
  {6bbc688b-5d4e-4a71-b2e8-c10c6890438f}, ! Handle
  Component Data 1,                       ! Name
  {42c86c2d-54a2-4b7a-b1ac-f236ed3dab42}, ! UUID
  {7c5f6e8d-a085-4326-a863-f7c60006eff0}, ! Version UUID
  1366308086,                             ! Creation Timestamp
  1366308086,                             ! Version Timestamp
  {c82bf867-ae13-44c7-b9a2-44b6608a433a}; ! Name of Object 1

