
OS:Version,
  {611ca2c4-33ad-49e8-aa47-abe99a1e52cf}, ! Handle
  0.9.3;                                  ! Version Identifier

OS:SizingPeriod:DesignDay,
  {f84756d3-c048-482c-bfae-723af3cf2ca6}, ! Handle
  Wendover Usaf Auxiliary Field Ann Clg 2% Condns Enth=>MDB, ! Name
  29.2,                                   ! Maximum Dry-Bulb Temperature {C}
  12.6,                                   ! Daily Dry-Bulb Temperature Range {deltaC}
  51300,                                  ! Humidity Indicating Conditions at Maximum Dry-Bulb {BasedOnField A3}
  86747,                                  ! Barometric Pressure {Pa}
  5.1,                                    ! Wind Speed {m/s}
  120,                                    ! Wind Direction {deg}
  0,                                      ! Sky Clearness
  0,                                      ! Rain Indicator
  0,                                      ! Snow Indicator
  21,                                     ! Day of Month
  7,                                      ! Month
  SummerDesignDay,                        ! Day Type
  0,                                      ! Daylight Saving Time Indicator
  Enthalpy,                               ! Humidity Indicating Type
  ,                                       ! Humidity Indicating Day Schedule Name
  DefaultMultipliers,                     ! Dry-Bulb Temperature Range Modifier Type
  ,                                       ! Dry-Bulb Temperature Range Modifier Schedule Name
  ASHRAETau,                              ! Solar Model Indicator
  ,                                       ! Beam Solar Day Schedule Name
  ,                                       ! Diffuse Solar Day Schedule Name
  0.474,                                  ! ASHRAE Taub {dimensionless}
  1.796;                                  ! ASHRAE Taud {dimensionless}

OS:ComponentData,
  {d379c058-3955-468f-855b-89029363b944}, ! Handle
  Component Data 1,                       ! Name
  {bcdb8999-6ed2-438f-ae68-79bea7a50840}, ! UUID
  {8d57bb84-983d-4640-b35a-c3e96f85bf31}, ! Version UUID
  1366311010,                             ! Creation Timestamp
  1366311010,                             ! Version Timestamp
  {f84756d3-c048-482c-bfae-723af3cf2ca6}; ! Name of Object 1

