
OS:Version,
  {9a9b1204-93dd-4d2b-89e2-e0d9f5a9bbcc}, ! Handle
  0.9.3;                                  ! Version Identifier

OS:SizingPeriod:DesignDay,
  {8a0b109c-9389-44e5-9f18-3fa05876bc24}, ! Handle
  New Ulm Muni  Awos Ann Hum_n 99.6% Condns DP=>MCDB, ! Name
  -24.6,                                  ! Maximum Dry-Bulb Temperature {C}
  0,                                      ! Daily Dry-Bulb Temperature Range {deltaC}
  -28.9,                                  ! Humidity Indicating Conditions at Maximum Dry-Bulb {BasedOnField A3}
  97679,                                  ! Barometric Pressure {Pa}
  3.8,                                    ! Wind Speed {m/s}
  280,                                    ! Wind Direction {deg}
  0,                                      ! Sky Clearness
  0,                                      ! Rain Indicator
  0,                                      ! Snow Indicator
  21,                                     ! Day of Month
  1,                                      ! Month
  WinterDesignDay,                        ! Day Type
  0,                                      ! Daylight Saving Time Indicator
  Dewpoint,                               ! Humidity Indicating Type
  ,                                       ! Humidity Indicating Day Schedule Name
  DefaultMultipliers,                     ! Dry-Bulb Temperature Range Modifier Type
  ,                                       ! Dry-Bulb Temperature Range Modifier Schedule Name
  ASHRAEClearSky;                         ! Solar Model Indicator

OS:ComponentData,
  {3204b2fc-e674-4ab2-91aa-b4cf93d59a11}, ! Handle
  Component Data 1,                       ! Name
  {e2d07cfa-c30d-4d62-a111-0d9e7f492ce9}, ! UUID
  {106a0a0a-fb5c-4b71-9ac9-f704e246d664}, ! Version UUID
  1366308341,                             ! Creation Timestamp
  1366308341,                             ! Version Timestamp
  {8a0b109c-9389-44e5-9f18-3fa05876bc24}; ! Name of Object 1

