
OS:Version,
  {5d0962b9-77b3-4d3f-b806-c81f34f491ff}, ! Handle
  0.9.3;                                  ! Version Identifier

OS:SizingPeriod:DesignDay,
  {4080c91f-edff-4cec-ab65-03318194b6b9}, ! Handle
  SALEM Ann Clg 2% Condns DP=>MDB,        ! Name
  21.7,                                   ! Maximum Dry-Bulb Temperature {C}
  15.4,                                   ! Daily Dry-Bulb Temperature Range {deltaC}
  14.7,                                   ! Humidity Indicating Conditions at Maximum Dry-Bulb {BasedOnField A3}
  100594,                                 ! Barometric Pressure {Pa}
  4.3,                                    ! Wind Speed {m/s}
  0,                                      ! Wind Direction {deg}
  0,                                      ! Sky Clearness
  0,                                      ! Rain Indicator
  0,                                      ! Snow Indicator
  21,                                     ! Day of Month
  8,                                      ! Month
  SummerDesignDay,                        ! Day Type
  0,                                      ! Daylight Saving Time Indicator
  Dewpoint,                               ! Humidity Indicating Type
  ,                                       ! Humidity Indicating Day Schedule Name
  DefaultMultipliers,                     ! Dry-Bulb Temperature Range Modifier Type
  ,                                       ! Dry-Bulb Temperature Range Modifier Schedule Name
  ASHRAETau,                              ! Solar Model Indicator
  ,                                       ! Beam Solar Day Schedule Name
  ,                                       ! Diffuse Solar Day Schedule Name
  0.355,                                  ! ASHRAE Taub {dimensionless}
  2.578;                                  ! ASHRAE Taud {dimensionless}

