
OS:Version,
  {02a263ce-804f-4943-8f03-6a5cf2bb3324}, ! Handle
  0.9.3;                                  ! Version Identifier

OS:SizingPeriod:DesignDay,
  {3a8951ec-ffd7-4af1-9279-05abc06587a9}, ! Handle
  PORT_ARTHUR Ann Clg 2% Condns DB=>MWB,  ! Name
  32.9,                                   ! Maximum Dry-Bulb Temperature {C}
  8.9,                                    ! Daily Dry-Bulb Temperature Range {deltaC}
  25.7,                                   ! Humidity Indicating Conditions at Maximum Dry-Bulb {BasedOnField A3}
  101241,                                 ! Barometric Pressure {Pa}
  3.6,                                    ! Wind Speed {m/s}
  200,                                    ! Wind Direction {deg}
  0,                                      ! Sky Clearness
  0,                                      ! Rain Indicator
  0,                                      ! Snow Indicator
  21,                                     ! Day of Month
  7,                                      ! Month
  SummerDesignDay,                        ! Day Type
  0,                                      ! Daylight Saving Time Indicator
  Wetbulb,                                ! Humidity Indicating Type
  ,                                       ! Humidity Indicating Day Schedule Name
  DefaultMultipliers,                     ! Dry-Bulb Temperature Range Modifier Type
  ,                                       ! Dry-Bulb Temperature Range Modifier Schedule Name
  ASHRAETau,                              ! Solar Model Indicator
  ,                                       ! Beam Solar Day Schedule Name
  ,                                       ! Diffuse Solar Day Schedule Name
  0.515,                                  ! ASHRAE Taub {dimensionless}
  1.943;                                  ! ASHRAE Taud {dimensionless}

OS:ComponentData,
  {b03a63ef-1ded-4dbc-9a8e-c222250a01da}, ! Handle
  Component Data 1,                       ! Name
  {732d707b-ed7b-441f-b31a-6708ed088602}, ! UUID
  {acb884ad-2494-4cb7-9333-2f35e84a10e4}, ! Version UUID
  1366310594,                             ! Creation Timestamp
  1366310594,                             ! Version Timestamp
  {3a8951ec-ffd7-4af1-9279-05abc06587a9}; ! Name of Object 1

