
OS:Version,
  {2b7cb0c1-b35d-416c-98b7-7f2b07fb82b2}, ! Handle
  0.9.3;                                  ! Version Identifier

OS:SizingPeriod:DesignDay,
  {62d05a0a-38bb-4f9f-9773-1709adafc320}, ! Handle
  Traverse City Ann Clg 1% Condns DP=>MDB, ! Name
  25.4,                                   ! Maximum Dry-Bulb Temperature {C}
  11.8,                                   ! Daily Dry-Bulb Temperature Range {deltaC}
  21.1,                                   ! Humidity Indicating Conditions at Maximum Dry-Bulb {BasedOnField A3}
  99063,                                  ! Barometric Pressure {Pa}
  5.1,                                    ! Wind Speed {m/s}
  230,                                    ! Wind Direction {deg}
  0,                                      ! Sky Clearness
  0,                                      ! Rain Indicator
  0,                                      ! Snow Indicator
  21,                                     ! Day of Month
  7,                                      ! Month
  SummerDesignDay,                        ! Day Type
  0,                                      ! Daylight Saving Time Indicator
  Dewpoint,                               ! Humidity Indicating Type
  ,                                       ! Humidity Indicating Day Schedule Name
  DefaultMultipliers,                     ! Dry-Bulb Temperature Range Modifier Type
  ,                                       ! Dry-Bulb Temperature Range Modifier Schedule Name
  ASHRAETau,                              ! Solar Model Indicator
  ,                                       ! Beam Solar Day Schedule Name
  ,                                       ! Diffuse Solar Day Schedule Name
  0.422,                                  ! ASHRAE Taub {dimensionless}
  2.177;                                  ! ASHRAE Taud {dimensionless}

