
OS:Version,
  {8aefd8b1-0444-425e-8e6b-e3599e6d3ec3}, ! Handle
  0.9.3;                                  ! Version Identifier

OS:SizingPeriod:DesignDay,
  {b5057e63-8989-47b6-92b5-9e75dfb874e1}, ! Handle
  SAN_ANGELO Ann Htg 99.6% Condns DB,     ! Name
  -6.6,                                   ! Maximum Dry-Bulb Temperature {C}
  0,                                      ! Daily Dry-Bulb Temperature Range {deltaC}
  -6.6,                                   ! Humidity Indicating Conditions at Maximum Dry-Bulb {BasedOnField A3}
  94526,                                  ! Barometric Pressure {Pa}
  4.1,                                    ! Wind Speed {m/s}
  40,                                     ! Wind Direction {deg}
  0,                                      ! Sky Clearness
  0,                                      ! Rain Indicator
  0,                                      ! Snow Indicator
  21,                                     ! Day of Month
  1,                                      ! Month
  WinterDesignDay,                        ! Day Type
  0,                                      ! Daylight Saving Time Indicator
  Wetbulb,                                ! Humidity Indicating Type
  ,                                       ! Humidity Indicating Day Schedule Name
  DefaultMultipliers,                     ! Dry-Bulb Temperature Range Modifier Type
  ,                                       ! Dry-Bulb Temperature Range Modifier Schedule Name
  ASHRAEClearSky;                         ! Solar Model Indicator

OS:ComponentData,
  {3ef6736a-e6c0-4799-b840-af079cc44a64}, ! Handle
  Component Data 1,                       ! Name
  {aa5faa4e-0f52-4c5b-8228-71c3e0fa8f05}, ! UUID
  {113a8051-ac7f-4489-94e5-d3c44ca1077b}, ! Version UUID
  1366310876,                             ! Creation Timestamp
  1366310876,                             ! Version Timestamp
  {b5057e63-8989-47b6-92b5-9e75dfb874e1}; ! Name of Object 1

