
OS:Version,
  {876cbbd8-aa1e-480e-8c78-ce19d9efd885}, ! Handle
  0.9.3;                                  ! Version Identifier

OS:SizingPeriod:DesignDay,
  {d4a6810c-f4b8-49dd-ad19-13b1fa3d90cb}, ! Handle
  Worchester Regional Arpt Ann Hum_n 99% Condns DP=>MCDB, ! Name
  -12.5,                                  ! Maximum Dry-Bulb Temperature {C}
  0,                                      ! Daily Dry-Bulb Temperature Range {deltaC}
  -22.8,                                  ! Humidity Indicating Conditions at Maximum Dry-Bulb {BasedOnField A3}
  97773,                                  ! Barometric Pressure {Pa}
  6,                                      ! Wind Speed {m/s}
  280,                                    ! Wind Direction {deg}
  0,                                      ! Sky Clearness
  0,                                      ! Rain Indicator
  0,                                      ! Snow Indicator
  21,                                     ! Day of Month
  1,                                      ! Month
  WinterDesignDay,                        ! Day Type
  0,                                      ! Daylight Saving Time Indicator
  Dewpoint,                               ! Humidity Indicating Type
  ,                                       ! Humidity Indicating Day Schedule Name
  DefaultMultipliers,                     ! Dry-Bulb Temperature Range Modifier Type
  ,                                       ! Dry-Bulb Temperature Range Modifier Schedule Name
  ASHRAEClearSky;                         ! Solar Model Indicator

OS:ComponentData,
  {f74e3f2f-5b11-4628-b68f-a9e38ef4a07f}, ! Handle
  Component Data 1,                       ! Name
  {f1351ff1-76d9-44ae-aa90-514422377414}, ! UUID
  {1a6e85ad-0476-40ce-86c3-4942b45fb7d4}, ! Version UUID
  1366307830,                             ! Creation Timestamp
  1366307830,                             ! Version Timestamp
  {d4a6810c-f4b8-49dd-ad19-13b1fa3d90cb}; ! Name of Object 1

