
OS:Version,
  {6f8c4056-6b61-4412-a8bf-d4292bccb5d8}, ! Handle
  0.9.3;                                  ! Version Identifier

OS:SizingPeriod:DesignDay,
  {ee0c08b7-233e-4cf5-b5d1-6075f8997884}, ! Handle
  Moody Afb Valdosta Ann Clg 2% Condns Enth=>MDB, ! Name
  31.1,                                   ! Maximum Dry-Bulb Temperature {C}
  10,                                     ! Daily Dry-Bulb Temperature Range {deltaC}
  78500,                                  ! Humidity Indicating Conditions at Maximum Dry-Bulb {BasedOnField A3}
  100475,                                 ! Barometric Pressure {Pa}
  2.6,                                    ! Wind Speed {m/s}
  300,                                    ! Wind Direction {deg}
  0,                                      ! Sky Clearness
  0,                                      ! Rain Indicator
  0,                                      ! Snow Indicator
  21,                                     ! Day of Month
  7,                                      ! Month
  SummerDesignDay,                        ! Day Type
  0,                                      ! Daylight Saving Time Indicator
  Enthalpy,                               ! Humidity Indicating Type
  ,                                       ! Humidity Indicating Day Schedule Name
  DefaultMultipliers,                     ! Dry-Bulb Temperature Range Modifier Type
  ,                                       ! Dry-Bulb Temperature Range Modifier Schedule Name
  ASHRAETau,                              ! Solar Model Indicator
  ,                                       ! Beam Solar Day Schedule Name
  ,                                       ! Diffuse Solar Day Schedule Name
  0.545,                                  ! ASHRAE Taub {dimensionless}
  1.836;                                  ! ASHRAE Taud {dimensionless}

OS:ComponentData,
  {003322b0-78e3-470f-a79c-ef727d26d09f}, ! Handle
  Component Data 1,                       ! Name
  {cef6ad76-5ba7-47aa-bf9e-36cde78bcb57}, ! UUID
  {1021d9e9-863b-4394-892e-16e302b103de}, ! Version UUID
  1366307061,                             ! Creation Timestamp
  1366307061,                             ! Version Timestamp
  {ee0c08b7-233e-4cf5-b5d1-6075f8997884}; ! Name of Object 1

