
OS:Version,
  {d489842e-38aa-44df-8fc3-c5754b499b42}, ! Handle
  0.9.3;                                  ! Version Identifier

OS:SizingPeriod:DesignDay,
  {b2b10676-5bb5-4570-b2de-33c88e0fb428}, ! Handle
  Patuxent River Nas Ann Htg 99% Condns DB, ! Name
  -6.2,                                   ! Maximum Dry-Bulb Temperature {C}
  0,                                      ! Daily Dry-Bulb Temperature Range {deltaC}
  -6.2,                                   ! Humidity Indicating Conditions at Maximum Dry-Bulb {BasedOnField A3}
  101157,                                 ! Barometric Pressure {Pa}
  4,                                      ! Wind Speed {m/s}
  350,                                    ! Wind Direction {deg}
  0,                                      ! Sky Clearness
  0,                                      ! Rain Indicator
  0,                                      ! Snow Indicator
  21,                                     ! Day of Month
  1,                                      ! Month
  WinterDesignDay,                        ! Day Type
  0,                                      ! Daylight Saving Time Indicator
  Wetbulb,                                ! Humidity Indicating Type
  ,                                       ! Humidity Indicating Day Schedule Name
  DefaultMultipliers,                     ! Dry-Bulb Temperature Range Modifier Type
  ,                                       ! Dry-Bulb Temperature Range Modifier Schedule Name
  ASHRAEClearSky;                         ! Solar Model Indicator

OS:ComponentData,
  {11e31d4f-d402-4132-8cec-5edda0b25ca5}, ! Handle
  Component Data 1,                       ! Name
  {97ec76ff-1e36-4a70-ab59-c6c88b1bb825}, ! UUID
  {315422c9-8d49-4122-bbde-5ea25979c6e6}, ! Version UUID
  1366307856,                             ! Creation Timestamp
  1366307856,                             ! Version Timestamp
  {b2b10676-5bb5-4570-b2de-33c88e0fb428}; ! Name of Object 1

