
OS:Version,
  {6b2bb4a7-8b57-49c2-b8bb-cf06d73f5469}, ! Handle
  0.9.3;                                  ! Version Identifier

OS:SizingPeriod:DesignDay,
  {b238b005-0358-42a4-99ca-ec75c5b27f68}, ! Handle
  SAINT_CLOUD Ann Clg 1% Condns DP=>MDB,  ! Name
  26.9,                                   ! Maximum Dry-Bulb Temperature {C}
  12.3,                                   ! Daily Dry-Bulb Temperature Range {deltaC}
  21.8,                                   ! Humidity Indicating Conditions at Maximum Dry-Bulb {BasedOnField A3}
  97621,                                  ! Barometric Pressure {Pa}
  5.1,                                    ! Wind Speed {m/s}
  180,                                    ! Wind Direction {deg}
  0,                                      ! Sky Clearness
  0,                                      ! Rain Indicator
  0,                                      ! Snow Indicator
  21,                                     ! Day of Month
  7,                                      ! Month
  SummerDesignDay,                        ! Day Type
  0,                                      ! Daylight Saving Time Indicator
  Dewpoint,                               ! Humidity Indicating Type
  ,                                       ! Humidity Indicating Day Schedule Name
  DefaultMultipliers,                     ! Dry-Bulb Temperature Range Modifier Type
  ,                                       ! Dry-Bulb Temperature Range Modifier Schedule Name
  ASHRAETau,                              ! Solar Model Indicator
  ,                                       ! Beam Solar Day Schedule Name
  ,                                       ! Diffuse Solar Day Schedule Name
  0.405,                                  ! ASHRAE Taub {dimensionless}
  2.216;                                  ! ASHRAE Taud {dimensionless}

OS:ComponentData,
  {eed5add2-8c06-4b1a-bdaa-2ddccceb9a1a}, ! Handle
  Component Data 1,                       ! Name
  {823de7c6-53f8-4fb3-be06-6146a36fb2bf}, ! UUID
  {c1486fed-dadd-49fb-9fce-001316ae1b69}, ! Version UUID
  1366308411,                             ! Creation Timestamp
  1366308411,                             ! Version Timestamp
  {b238b005-0358-42a4-99ca-ec75c5b27f68}; ! Name of Object 1

