
OS:Version,
  {1c346b98-e7d7-4faf-9410-be2a067e3a32}, ! Handle
  0.9.3;                                  ! Version Identifier

OS:SizingPeriod:DesignDay,
  {22250951-758b-4354-b6be-c9a2444c965c}, ! Handle
  North Bend Ann Clg 2% Condns DP=>MDB,   ! Name
  17,                                     ! Maximum Dry-Bulb Temperature {C}
  7.3,                                    ! Daily Dry-Bulb Temperature Range {deltaC}
  14,                                     ! Humidity Indicating Conditions at Maximum Dry-Bulb {BasedOnField A3}
  101277,                                 ! Barometric Pressure {Pa}
  6.1,                                    ! Wind Speed {m/s}
  330,                                    ! Wind Direction {deg}
  0,                                      ! Sky Clearness
  0,                                      ! Rain Indicator
  0,                                      ! Snow Indicator
  21,                                     ! Day of Month
  8,                                      ! Month
  SummerDesignDay,                        ! Day Type
  0,                                      ! Daylight Saving Time Indicator
  Dewpoint,                               ! Humidity Indicating Type
  ,                                       ! Humidity Indicating Day Schedule Name
  DefaultMultipliers,                     ! Dry-Bulb Temperature Range Modifier Type
  ,                                       ! Dry-Bulb Temperature Range Modifier Schedule Name
  ASHRAETau,                              ! Solar Model Indicator
  ,                                       ! Beam Solar Day Schedule Name
  ,                                       ! Diffuse Solar Day Schedule Name
  0.348,                                  ! ASHRAE Taub {dimensionless}
  2.638;                                  ! ASHRAE Taud {dimensionless}

OS:ComponentData,
  {d7a5182f-b682-4377-ace2-01374843303d}, ! Handle
  Component Data 1,                       ! Name
  {658a1756-fa85-47d0-bc59-836bf24db15e}, ! UUID
  {1044e762-c0fe-4c7e-afbc-b53cdb5f8d6a}, ! Version UUID
  1366310050,                             ! Creation Timestamp
  1366310050,                             ! Version Timestamp
  {22250951-758b-4354-b6be-c9a2444c965c}; ! Name of Object 1

