
OS:Version,
  {3e502281-bace-4b00-befb-1abbb6422631}, ! Handle
  0.9.3;                                  ! Version Identifier

OS:SizingPeriod:DesignDay,
  {888062d6-8062-467b-901a-659f786e4c7d}, ! Handle
  MASSENA Ann Clg 2% Condns DB=>MWB,      ! Name
  27.8,                                   ! Maximum Dry-Bulb Temperature {C}
  11.7,                                   ! Daily Dry-Bulb Temperature Range {deltaC}
  20.8,                                   ! Humidity Indicating Conditions at Maximum Dry-Bulb {BasedOnField A3}
  100570,                                 ! Barometric Pressure {Pa}
  4.7,                                    ! Wind Speed {m/s}
  240,                                    ! Wind Direction {deg}
  0,                                      ! Sky Clearness
  0,                                      ! Rain Indicator
  0,                                      ! Snow Indicator
  21,                                     ! Day of Month
  7,                                      ! Month
  SummerDesignDay,                        ! Day Type
  0,                                      ! Daylight Saving Time Indicator
  Wetbulb,                                ! Humidity Indicating Type
  ,                                       ! Humidity Indicating Day Schedule Name
  DefaultMultipliers,                     ! Dry-Bulb Temperature Range Modifier Type
  ,                                       ! Dry-Bulb Temperature Range Modifier Schedule Name
  ASHRAETau,                              ! Solar Model Indicator
  ,                                       ! Beam Solar Day Schedule Name
  ,                                       ! Diffuse Solar Day Schedule Name
  0.454,                                  ! ASHRAE Taub {dimensionless}
  2.024;                                  ! ASHRAE Taud {dimensionless}

OS:ComponentData,
  {405b2fff-9599-48be-92d6-ee2e7ba950a2}, ! Handle
  Component Data 1,                       ! Name
  {133b5296-e2c3-4883-8897-33a99a8125f1}, ! UUID
  {f0a18156-a729-4005-9842-9c0eaff0b010}, ! Version UUID
  1366309645,                             ! Creation Timestamp
  1366309645,                             ! Version Timestamp
  {888062d6-8062-467b-901a-659f786e4c7d}; ! Name of Object 1

