
OS:Version,
  {98cb06c4-ebc3-4faa-ba18-e63437bc588b}, ! Handle
  0.9.3;                                  ! Version Identifier

OS:SizingPeriod:DesignDay,
  {353fdb1b-c9e5-4f51-ad60-a38f90119383}, ! Handle
  Redmond Ann Htg 99.6% Condns DB,        ! Name
  -14.8,                                  ! Maximum Dry-Bulb Temperature {C}
  0,                                      ! Daily Dry-Bulb Temperature Range {deltaC}
  -14.8,                                  ! Humidity Indicating Conditions at Maximum Dry-Bulb {BasedOnField A3}
  90552,                                  ! Barometric Pressure {Pa}
  1.7,                                    ! Wind Speed {m/s}
  320,                                    ! Wind Direction {deg}
  0,                                      ! Sky Clearness
  0,                                      ! Rain Indicator
  0,                                      ! Snow Indicator
  21,                                     ! Day of Month
  12,                                     ! Month
  WinterDesignDay,                        ! Day Type
  0,                                      ! Daylight Saving Time Indicator
  Wetbulb,                                ! Humidity Indicating Type
  ,                                       ! Humidity Indicating Day Schedule Name
  DefaultMultipliers,                     ! Dry-Bulb Temperature Range Modifier Type
  ,                                       ! Dry-Bulb Temperature Range Modifier Schedule Name
  ASHRAEClearSky;                         ! Solar Model Indicator

OS:ComponentData,
  {0ad43711-19fc-4ef8-a64c-18d295076117}, ! Handle
  Component Data 1,                       ! Name
  {fc0186c7-83a4-48a3-9c44-0484e43b767f}, ! UUID
  {f34abfa4-26c4-4666-a5e8-84022dbeef91}, ! Version UUID
  1366310092,                             ! Creation Timestamp
  1366310092,                             ! Version Timestamp
  {353fdb1b-c9e5-4f51-ad60-a38f90119383}; ! Name of Object 1

