
OS:Version,
  {8571daa8-0f79-4f05-ab5f-89ab7ff7abfb}, ! Handle
  0.9.3;                                  ! Version Identifier

OS:SizingPeriod:DesignDay,
  {f214e07c-3f3d-4bf7-8ddb-c3e8638e1458}, ! Handle
  San Diego Miramar Nas Ann Htg 99.6% Condns DB, ! Name
  3.8,                                    ! Maximum Dry-Bulb Temperature {C}
  0,                                      ! Daily Dry-Bulb Temperature Range {deltaC}
  3.8,                                    ! Humidity Indicating Conditions at Maximum Dry-Bulb {BasedOnField A3}
  99654,                                  ! Barometric Pressure {Pa}
  2.1,                                    ! Wind Speed {m/s}
  90,                                     ! Wind Direction {deg}
  0,                                      ! Sky Clearness
  0,                                      ! Rain Indicator
  0,                                      ! Snow Indicator
  21,                                     ! Day of Month
  12,                                     ! Month
  WinterDesignDay,                        ! Day Type
  0,                                      ! Daylight Saving Time Indicator
  Wetbulb,                                ! Humidity Indicating Type
  ,                                       ! Humidity Indicating Day Schedule Name
  DefaultMultipliers,                     ! Dry-Bulb Temperature Range Modifier Type
  ,                                       ! Dry-Bulb Temperature Range Modifier Schedule Name
  ASHRAEClearSky;                         ! Solar Model Indicator

OS:ComponentData,
  {e0ca58c2-ed8e-4da2-ba3e-7122c0faaa03}, ! Handle
  Component Data 1,                       ! Name
  {229f68f2-23b7-40ca-8252-ecbb814020ef}, ! UUID
  {b80fa8b8-8b45-462b-8ba9-cc89aa83ce89}, ! Version UUID
  1366306577,                             ! Creation Timestamp
  1366306577,                             ! Version Timestamp
  {f214e07c-3f3d-4bf7-8ddb-c3e8638e1458}; ! Name of Object 1

