
OS:Version,
  {28802691-2a5c-4b06-b29a-ab46ca1a529f}, ! Handle
  0.9.3;                                  ! Version Identifier

OS:SizingPeriod:DesignDay,
  {aa642bfb-2393-4a21-8ec0-5821dfefd177}, ! Handle
  Waterloo Municipal Ap Ann Clg 1% Condns DP=>MDB, ! Name
  27.9,                                   ! Maximum Dry-Bulb Temperature {C}
  11.2,                                   ! Daily Dry-Bulb Temperature Range {deltaC}
  23.3,                                   ! Humidity Indicating Conditions at Maximum Dry-Bulb {BasedOnField A3}
  98193,                                  ! Barometric Pressure {Pa}
  5.5,                                    ! Wind Speed {m/s}
  190,                                    ! Wind Direction {deg}
  0,                                      ! Sky Clearness
  0,                                      ! Rain Indicator
  0,                                      ! Snow Indicator
  21,                                     ! Day of Month
  7,                                      ! Month
  SummerDesignDay,                        ! Day Type
  0,                                      ! Daylight Saving Time Indicator
  Dewpoint,                               ! Humidity Indicating Type
  ,                                       ! Humidity Indicating Day Schedule Name
  DefaultMultipliers,                     ! Dry-Bulb Temperature Range Modifier Type
  ,                                       ! Dry-Bulb Temperature Range Modifier Schedule Name
  ASHRAETau,                              ! Solar Model Indicator
  ,                                       ! Beam Solar Day Schedule Name
  ,                                       ! Diffuse Solar Day Schedule Name
  0.427,                                  ! ASHRAE Taub {dimensionless}
  2.147;                                  ! ASHRAE Taud {dimensionless}

OS:ComponentData,
  {4d369468-b9f2-4bb9-86a0-06f04c0937ab}, ! Handle
  Component Data 1,                       ! Name
  {e7304d32-ebb7-434f-903c-557db5a41e1e}, ! UUID
  {a9c809e0-f6d1-467c-b5a4-c7c18c3cac3b}, ! Version UUID
  1366307255,                             ! Creation Timestamp
  1366307255,                             ! Version Timestamp
  {aa642bfb-2393-4a21-8ec0-5821dfefd177}; ! Name of Object 1

