
OS:Version,
  {35f5a560-82fa-445d-9bd6-012ff6f7bac2}, ! Handle
  0.9.3;                                  ! Version Identifier

OS:SizingPeriod:DesignDay,
  {a04ba22a-0e30-4f2f-b9cd-9d8bf968998c}, ! Handle
  TOLEDO Ann Clg 1% Condns Enth=>MDB,     ! Name
  29.2,                                   ! Maximum Dry-Bulb Temperature {C}
  11.5,                                   ! Daily Dry-Bulb Temperature Range {deltaC}
  73500,                                  ! Humidity Indicating Conditions at Maximum Dry-Bulb {BasedOnField A3}
  98816,                                  ! Barometric Pressure {Pa}
  4.8,                                    ! Wind Speed {m/s}
  230,                                    ! Wind Direction {deg}
  0,                                      ! Sky Clearness
  0,                                      ! Rain Indicator
  0,                                      ! Snow Indicator
  21,                                     ! Day of Month
  7,                                      ! Month
  SummerDesignDay,                        ! Day Type
  0,                                      ! Daylight Saving Time Indicator
  Enthalpy,                               ! Humidity Indicating Type
  ,                                       ! Humidity Indicating Day Schedule Name
  DefaultMultipliers,                     ! Dry-Bulb Temperature Range Modifier Type
  ,                                       ! Dry-Bulb Temperature Range Modifier Schedule Name
  ASHRAETau,                              ! Solar Model Indicator
  ,                                       ! Beam Solar Day Schedule Name
  ,                                       ! Diffuse Solar Day Schedule Name
  0.45,                                   ! ASHRAE Taub {dimensionless}
  2.065;                                  ! ASHRAE Taud {dimensionless}

OS:ComponentData,
  {8383f748-3b44-4278-9ded-71fc875504f9}, ! Handle
  Component Data 1,                       ! Name
  {871d9981-de47-42d4-9338-e3d2aa7a0359}, ! UUID
  {6d410841-18b6-4d62-8938-dee8591072e5}, ! Version UUID
  1366309847,                             ! Creation Timestamp
  1366309847,                             ! Version Timestamp
  {a04ba22a-0e30-4f2f-b9cd-9d8bf968998c}; ! Name of Object 1

