
OS:Version,
  {ce6a76d1-28c9-43f7-baf9-69e8453f25e5}, ! Handle
  0.9.3;                                  ! Version Identifier

OS:SizingPeriod:DesignDay,
  {8bd57007-f524-46d3-a6de-3e7503f19a4e}, ! Handle
  ST_PAUL Ann Htg Wind 99.6% Condns WS=>MCDB, ! Name
  -2.1,                                   ! Maximum Dry-Bulb Temperature {C}
  0,                                      ! Daily Dry-Bulb Temperature Range {deltaC}
  -2.1,                                   ! Humidity Indicating Conditions at Maximum Dry-Bulb {BasedOnField A3}
  101241,                                 ! Barometric Pressure {Pa}
  20.3,                                   ! Wind Speed {m/s}
  0,                                      ! Wind Direction {deg}
  0,                                      ! Sky Clearness
  0,                                      ! Rain Indicator
  0,                                      ! Snow Indicator
  21,                                     ! Day of Month
  2,                                      ! Month
  WinterDesignDay,                        ! Day Type
  0,                                      ! Daylight Saving Time Indicator
  Wetbulb,                                ! Humidity Indicating Type
  ,                                       ! Humidity Indicating Day Schedule Name
  DefaultMultipliers,                     ! Dry-Bulb Temperature Range Modifier Type
  ,                                       ! Dry-Bulb Temperature Range Modifier Schedule Name
  ASHRAEClearSky;                         ! Solar Model Indicator

OS:ComponentData,
  {12ee7979-1473-4ef9-b997-73c28c5fba4e}, ! Handle
  Component Data 1,                       ! Name
  {c5761b01-2caf-4628-abd5-4b16e3d3219a}, ! UUID
  {4aecb9b8-9644-4662-850e-355ebc3e54d9}, ! Version UUID
  1366305571,                             ! Creation Timestamp
  1366305571,                             ! Version Timestamp
  {8bd57007-f524-46d3-a6de-3e7503f19a4e}; ! Name of Object 1

