
OS:Version,
  {507a4fd7-af56-4e13-b3dd-2f946448c9e5}, ! Handle
  0.9.3;                                  ! Version Identifier

OS:SizingPeriod:DesignDay,
  {45ffad8b-a380-4997-b55d-4bbe954a58ca}, ! Handle
  Rapid City Ann Clg 2% Condns DB=>MWB,   ! Name
  31.8,                                   ! Maximum Dry-Bulb Temperature {C}
  14.8,                                   ! Daily Dry-Bulb Temperature Range {deltaC}
  18.3,                                   ! Humidity Indicating Conditions at Maximum Dry-Bulb {BasedOnField A3}
  90246,                                  ! Barometric Pressure {Pa}
  6,                                      ! Wind Speed {m/s}
  180,                                    ! Wind Direction {deg}
  0,                                      ! Sky Clearness
  0,                                      ! Rain Indicator
  0,                                      ! Snow Indicator
  21,                                     ! Day of Month
  7,                                      ! Month
  SummerDesignDay,                        ! Day Type
  0,                                      ! Daylight Saving Time Indicator
  Wetbulb,                                ! Humidity Indicating Type
  ,                                       ! Humidity Indicating Day Schedule Name
  DefaultMultipliers,                     ! Dry-Bulb Temperature Range Modifier Type
  ,                                       ! Dry-Bulb Temperature Range Modifier Schedule Name
  ASHRAETau,                              ! Solar Model Indicator
  ,                                       ! Beam Solar Day Schedule Name
  ,                                       ! Diffuse Solar Day Schedule Name
  0.41,                                   ! ASHRAE Taub {dimensionless}
  2.134;                                  ! ASHRAE Taud {dimensionless}

OS:ComponentData,
  {355f6dac-009b-4403-abf3-e09e4822ec9e}, ! Handle
  Component Data 1,                       ! Name
  {f2885e1c-4a4f-42b2-b760-4cef898c4b50}, ! UUID
  {5412fa23-8c61-45f5-b5c2-f5eb1e5a5ee8}, ! Version UUID
  1366310445,                             ! Creation Timestamp
  1366310445,                             ! Version Timestamp
  {45ffad8b-a380-4997-b55d-4bbe954a58ca}; ! Name of Object 1

