
OS:Version,
  {267a8ac6-3146-4d43-91b3-104099045d35}, ! Handle
  0.9.3;                                  ! Version Identifier

OS:SizingPeriod:DesignDay,
  {d135ca2c-c933-4823-9db2-a92673c84b67}, ! Handle
  Teterboro Airport Ann Clg 2% Condns WB=>MDB, ! Name
  28.4,                                   ! Maximum Dry-Bulb Temperature {C}
  9.9,                                    ! Daily Dry-Bulb Temperature Range {deltaC}
  23.8,                                   ! Humidity Indicating Conditions at Maximum Dry-Bulb {BasedOnField A3}
  101289,                                 ! Barometric Pressure {Pa}
  4.8,                                    ! Wind Speed {m/s}
  240,                                    ! Wind Direction {deg}
  0,                                      ! Sky Clearness
  0,                                      ! Rain Indicator
  0,                                      ! Snow Indicator
  21,                                     ! Day of Month
  7,                                      ! Month
  SummerDesignDay,                        ! Day Type
  0,                                      ! Daylight Saving Time Indicator
  Wetbulb,                                ! Humidity Indicating Type
  ,                                       ! Humidity Indicating Day Schedule Name
  DefaultMultipliers,                     ! Dry-Bulb Temperature Range Modifier Type
  ,                                       ! Dry-Bulb Temperature Range Modifier Schedule Name
  ASHRAETau,                              ! Solar Model Indicator
  ,                                       ! Beam Solar Day Schedule Name
  ,                                       ! Diffuse Solar Day Schedule Name
  0.525,                                  ! ASHRAE Taub {dimensionless}
  1.838;                                  ! ASHRAE Taud {dimensionless}

OS:ComponentData,
  {e9340bbb-9db7-4c40-b422-36000fc7f40d}, ! Handle
  Component Data 1,                       ! Name
  {c33e8851-097e-4093-9f67-e0a33471956d}, ! UUID
  {3a0da3e9-d171-4a75-ac93-a18e1c5b3ea8}, ! Version UUID
  1366309344,                             ! Creation Timestamp
  1366309344,                             ! Version Timestamp
  {d135ca2c-c933-4823-9db2-a92673c84b67}; ! Name of Object 1

