
OS:Version,
  {4f88215f-30e3-4699-9a09-ac2d897c41bb}, ! Handle
  0.9.3;                                  ! Version Identifier

OS:SizingPeriod:DesignDay,
  {9809a407-4a89-46f1-b311-3779bdaf328c}, ! Handle
  Pensacola Forest Sherman Nas Ann Clg .4% Condns Enth=>MDB, ! Name
  31.4,                                   ! Maximum Dry-Bulb Temperature {C}
  8.3,                                    ! Daily Dry-Bulb Temperature Range {deltaC}
  87400,                                  ! Humidity Indicating Conditions at Maximum Dry-Bulb {BasedOnField A3}
  101205,                                 ! Barometric Pressure {Pa}
  4.5,                                    ! Wind Speed {m/s}
  210,                                    ! Wind Direction {deg}
  0,                                      ! Sky Clearness
  0,                                      ! Rain Indicator
  0,                                      ! Snow Indicator
  21,                                     ! Day of Month
  7,                                      ! Month
  SummerDesignDay,                        ! Day Type
  0,                                      ! Daylight Saving Time Indicator
  Enthalpy,                               ! Humidity Indicating Type
  ,                                       ! Humidity Indicating Day Schedule Name
  DefaultMultipliers,                     ! Dry-Bulb Temperature Range Modifier Type
  ,                                       ! Dry-Bulb Temperature Range Modifier Schedule Name
  ASHRAETau,                              ! Solar Model Indicator
  ,                                       ! Beam Solar Day Schedule Name
  ,                                       ! Diffuse Solar Day Schedule Name
  0.531,                                  ! ASHRAE Taub {dimensionless}
  1.898;                                  ! ASHRAE Taud {dimensionless}

OS:ComponentData,
  {a0a14d4c-535d-4e3a-97c6-fa29967dded0}, ! Handle
  Component Data 1,                       ! Name
  {8cedcc85-434e-4cd3-bd13-7958a777a247}, ! UUID
  {673b4f87-ee48-4cd7-9570-66596dc7a774}, ! Version UUID
  1366306903,                             ! Creation Timestamp
  1366306903,                             ! Version Timestamp
  {9809a407-4a89-46f1-b311-3779bdaf328c}; ! Name of Object 1

