
OS:Version,
  {eab9b638-aef1-48a6-80d6-f2d99a027127}, ! Handle
  0.9.3;                                  ! Version Identifier

OS:SizingPeriod:DesignDay,
  {e3cef735-a99c-49df-a79d-a02f46871fc1}, ! Handle
  Rochester International Arpt Ann Htg Wind 99.6% Condns WS=>MCDB, ! Name
  -9.6,                                   ! Maximum Dry-Bulb Temperature {C}
  0,                                      ! Daily Dry-Bulb Temperature Range {deltaC}
  -9.6,                                   ! Humidity Indicating Conditions at Maximum Dry-Bulb {BasedOnField A3}
  96634,                                  ! Barometric Pressure {Pa}
  15.8,                                   ! Wind Speed {m/s}
  310,                                    ! Wind Direction {deg}
  0,                                      ! Sky Clearness
  0,                                      ! Rain Indicator
  0,                                      ! Snow Indicator
  21,                                     ! Day of Month
  1,                                      ! Month
  WinterDesignDay,                        ! Day Type
  0,                                      ! Daylight Saving Time Indicator
  Wetbulb,                                ! Humidity Indicating Type
  ,                                       ! Humidity Indicating Day Schedule Name
  DefaultMultipliers,                     ! Dry-Bulb Temperature Range Modifier Type
  ,                                       ! Dry-Bulb Temperature Range Modifier Schedule Name
  ASHRAEClearSky;                         ! Solar Model Indicator

OS:ComponentData,
  {27e02266-e17f-4fbc-9ec8-0fe5d100668b}, ! Handle
  Component Data 1,                       ! Name
  {1582769e-a065-4c88-85c3-f2a45035cfcd}, ! UUID
  {6246619c-7af3-488f-94da-2b2e8b806e3b}, ! Version UUID
  1366308397,                             ! Creation Timestamp
  1366308397,                             ! Version Timestamp
  {e3cef735-a99c-49df-a79d-a02f46871fc1}; ! Name of Object 1

