
OS:Version,
  {b076d45e-f006-4144-b2f6-957809cdeb88}, ! Handle
  0.9.3;                                  ! Version Identifier

OS:SizingPeriod:DesignDay,
  {792f01c4-eea1-4319-9515-28a8321dd928}, ! Handle
  SPOKANE Ann Clg 2% Condns Enth=>MDB,    ! Name
  27.2,                                   ! Maximum Dry-Bulb Temperature {C}
  14.5,                                   ! Daily Dry-Bulb Temperature Range {deltaC}
  48800,                                  ! Humidity Indicating Conditions at Maximum Dry-Bulb {BasedOnField A3}
  92958,                                  ! Barometric Pressure {Pa}
  3.4,                                    ! Wind Speed {m/s}
  240,                                    ! Wind Direction {deg}
  0,                                      ! Sky Clearness
  0,                                      ! Rain Indicator
  0,                                      ! Snow Indicator
  21,                                     ! Day of Month
  7,                                      ! Month
  SummerDesignDay,                        ! Day Type
  0,                                      ! Daylight Saving Time Indicator
  Enthalpy,                               ! Humidity Indicating Type
  ,                                       ! Humidity Indicating Day Schedule Name
  DefaultMultipliers,                     ! Dry-Bulb Temperature Range Modifier Type
  ,                                       ! Dry-Bulb Temperature Range Modifier Schedule Name
  ASHRAETau,                              ! Solar Model Indicator
  ,                                       ! Beam Solar Day Schedule Name
  ,                                       ! Diffuse Solar Day Schedule Name
  0.353,                                  ! ASHRAE Taub {dimensionless}
  2.387;                                  ! ASHRAE Taud {dimensionless}

OS:ComponentData,
  {c84fcae1-832a-4711-90c7-2c9810be2205}, ! Handle
  Component Data 1,                       ! Name
  {c6bf9bc2-af3c-44fe-8789-7a86972494be}, ! UUID
  {0e8e018a-6b39-4994-a135-1836d3b5a243}, ! Version UUID
  1366311386,                             ! Creation Timestamp
  1366311386,                             ! Version Timestamp
  {792f01c4-eea1-4319-9515-28a8321dd928}; ! Name of Object 1

