
OS:Version,
  {9d825a9e-240b-4625-a0e2-fde823a57aad}, ! Handle
  0.9.3;                                  ! Version Identifier

OS:SizingPeriod:DesignDay,
  {d2318c9f-462e-46f5-8711-527d0eb252aa}, ! Handle
  Marietta Dobbins Afb Ann Hum_n 99% Condns DP=>MCDB, ! Name
  0.2,                                    ! Maximum Dry-Bulb Temperature {C}
  0,                                      ! Daily Dry-Bulb Temperature Range {deltaC}
  -13.5,                                  ! Humidity Indicating Conditions at Maximum Dry-Bulb {BasedOnField A3}
  97423,                                  ! Barometric Pressure {Pa}
  4.6,                                    ! Wind Speed {m/s}
  330,                                    ! Wind Direction {deg}
  0,                                      ! Sky Clearness
  0,                                      ! Rain Indicator
  0,                                      ! Snow Indicator
  21,                                     ! Day of Month
  1,                                      ! Month
  WinterDesignDay,                        ! Day Type
  0,                                      ! Daylight Saving Time Indicator
  Dewpoint,                               ! Humidity Indicating Type
  ,                                       ! Humidity Indicating Day Schedule Name
  DefaultMultipliers,                     ! Dry-Bulb Temperature Range Modifier Type
  ,                                       ! Dry-Bulb Temperature Range Modifier Schedule Name
  ASHRAEClearSky;                         ! Solar Model Indicator

OS:ComponentData,
  {a4fb51f9-8b7a-4034-9237-a3f9a582e1fa}, ! Handle
  Component Data 1,                       ! Name
  {2a780606-e8e1-4af3-ac45-002c3f278b55}, ! UUID
  {c255fe7b-a646-496c-b686-b5e41749c9a0}, ! Version UUID
  1366307030,                             ! Creation Timestamp
  1366307030,                             ! Version Timestamp
  {d2318c9f-462e-46f5-8711-527d0eb252aa}; ! Name of Object 1

