
OS:Version,
  {0fc279ba-7023-4e42-8130-dc1f214ec986}, ! Handle
  0.9.3;                                  ! Version Identifier

OS:SizingPeriod:DesignDay,
  {e6c90d53-37fb-44d7-bbf2-52a1591a2428}, ! Handle
  Wilmington Ann Clg 1% Condns Enth=>MDB, ! Name
  29.4,                                   ! Maximum Dry-Bulb Temperature {C}
  9.5,                                    ! Daily Dry-Bulb Temperature Range {deltaC}
  75400,                                  ! Humidity Indicating Conditions at Maximum Dry-Bulb {BasedOnField A3}
  101037,                                 ! Barometric Pressure {Pa}
  4.6,                                    ! Wind Speed {m/s}
  240,                                    ! Wind Direction {deg}
  0,                                      ! Sky Clearness
  0,                                      ! Rain Indicator
  0,                                      ! Snow Indicator
  21,                                     ! Day of Month
  7,                                      ! Month
  SummerDesignDay,                        ! Day Type
  0,                                      ! Daylight Saving Time Indicator
  Enthalpy,                               ! Humidity Indicating Type
  ,                                       ! Humidity Indicating Day Schedule Name
  DefaultMultipliers,                     ! Dry-Bulb Temperature Range Modifier Type
  ,                                       ! Dry-Bulb Temperature Range Modifier Schedule Name
  ASHRAETau,                              ! Solar Model Indicator
  ,                                       ! Beam Solar Day Schedule Name
  ,                                       ! Diffuse Solar Day Schedule Name
  0.557,                                  ! ASHRAE Taub {dimensionless}
  1.755;                                  ! ASHRAE Taud {dimensionless}

OS:ComponentData,
  {0d31e54c-5c80-4647-a428-6252b97749a6}, ! Handle
  Component Data 1,                       ! Name
  {e53d39b8-09b1-4a2f-8ccb-83b29bbe1563}, ! UUID
  {3fc56496-0615-4bf8-a330-1016ea781e8c}, ! Version UUID
  1366306774,                             ! Creation Timestamp
  1366306774,                             ! Version Timestamp
  {e6c90d53-37fb-44d7-bbf2-52a1591a2428}; ! Name of Object 1

