
OS:Version,
  {07249bc7-5cde-4158-9929-a107ec2b8fdc}, ! Handle
  0.9.3;                                  ! Version Identifier

OS:SizingPeriod:DesignDay,
  {f4781681-a5d9-44db-bfc5-32d063b54de3}, ! Handle
  Prescott Ann Clg 2% Condns DB=>MWB,     ! Name
  32,                                     ! Maximum Dry-Bulb Temperature {C}
  14.5,                                   ! Daily Dry-Bulb Temperature Range {deltaC}
  15.6,                                   ! Humidity Indicating Conditions at Maximum Dry-Bulb {BasedOnField A3}
  84173,                                  ! Barometric Pressure {Pa}
  4.8,                                    ! Wind Speed {m/s}
  240,                                    ! Wind Direction {deg}
  0,                                      ! Sky Clearness
  0,                                      ! Rain Indicator
  0,                                      ! Snow Indicator
  21,                                     ! Day of Month
  7,                                      ! Month
  SummerDesignDay,                        ! Day Type
  0,                                      ! Daylight Saving Time Indicator
  Wetbulb,                                ! Humidity Indicating Type
  ,                                       ! Humidity Indicating Day Schedule Name
  DefaultMultipliers,                     ! Dry-Bulb Temperature Range Modifier Type
  ,                                       ! Dry-Bulb Temperature Range Modifier Schedule Name
  ASHRAETau,                              ! Solar Model Indicator
  ,                                       ! Beam Solar Day Schedule Name
  ,                                       ! Diffuse Solar Day Schedule Name
  0.445,                                  ! ASHRAE Taub {dimensionless}
  1.967;                                  ! ASHRAE Taud {dimensionless}

OS:ComponentData,
  {ba1e5a47-793d-4595-a558-42ab3d4841df}, ! Handle
  Component Data 1,                       ! Name
  {f77e26ea-5c0f-4db2-936f-58c3cdb8e5a3}, ! UUID
  {7043cf55-b701-4906-ab00-4bbc46fba6e5}, ! Version UUID
  1366306302,                             ! Creation Timestamp
  1366306302,                             ! Version Timestamp
  {f4781681-a5d9-44db-bfc5-32d063b54de3}; ! Name of Object 1

