
OS:Version,
  {fbbf60c8-19ad-4f41-8639-6300d5bc20da}, ! Handle
  0.9.3;                                  ! Version Identifier

OS:SizingPeriod:DesignDay,
  {de06de83-0776-46d6-9c3a-bcf811312515}, ! Handle
  Montpelier Ap Ann Clg 2% Condns Enth=>MDB, ! Name
  24.9,                                   ! Maximum Dry-Bulb Temperature {C}
  11.3,                                   ! Daily Dry-Bulb Temperature Range {deltaC}
  60500,                                  ! Humidity Indicating Conditions at Maximum Dry-Bulb {BasedOnField A3}
  97272,                                  ! Barometric Pressure {Pa}
  3.8,                                    ! Wind Speed {m/s}
  220,                                    ! Wind Direction {deg}
  0,                                      ! Sky Clearness
  0,                                      ! Rain Indicator
  0,                                      ! Snow Indicator
  21,                                     ! Day of Month
  7,                                      ! Month
  SummerDesignDay,                        ! Day Type
  0,                                      ! Daylight Saving Time Indicator
  Enthalpy,                               ! Humidity Indicating Type
  ,                                       ! Humidity Indicating Day Schedule Name
  DefaultMultipliers,                     ! Dry-Bulb Temperature Range Modifier Type
  ,                                       ! Dry-Bulb Temperature Range Modifier Schedule Name
  ASHRAETau,                              ! Solar Model Indicator
  ,                                       ! Beam Solar Day Schedule Name
  ,                                       ! Diffuse Solar Day Schedule Name
  0.435,                                  ! ASHRAE Taub {dimensionless}
  2.069;                                  ! ASHRAE Taud {dimensionless}

OS:ComponentData,
  {1d11a15f-7e3c-46ca-9ec0-1e65883fe209}, ! Handle
  Component Data 1,                       ! Name
  {c3dd7055-b062-4cd7-ae85-2be8b0591b9d}, ! UUID
  {8b3fe106-e129-45ac-9607-8d3e388eb058}, ! Version UUID
  1366311253,                             ! Creation Timestamp
  1366311253,                             ! Version Timestamp
  {de06de83-0776-46d6-9c3a-bcf811312515}; ! Name of Object 1

