
OS:Version,
  {9894093e-13eb-41c4-9636-89c8666bc2cd}, ! Handle
  0.9.3;                                  ! Version Identifier

OS:SizingPeriod:DesignDay,
  {387f28c0-e29d-44e8-b272-bc683a7c8ba1}, ! Handle
  Portland Ann Hum_n 99.6% Condns DP=>MCDB, ! Name
  -1.5,                                   ! Maximum Dry-Bulb Temperature {C}
  0,                                      ! Daily Dry-Bulb Temperature Range {deltaC}
  -12.7,                                  ! Humidity Indicating Conditions at Maximum Dry-Bulb {BasedOnField A3}
  101181,                                 ! Barometric Pressure {Pa}
  5.1,                                    ! Wind Speed {m/s}
  120,                                    ! Wind Direction {deg}
  0,                                      ! Sky Clearness
  0,                                      ! Rain Indicator
  0,                                      ! Snow Indicator
  21,                                     ! Day of Month
  12,                                     ! Month
  WinterDesignDay,                        ! Day Type
  0,                                      ! Daylight Saving Time Indicator
  Dewpoint,                               ! Humidity Indicating Type
  ,                                       ! Humidity Indicating Day Schedule Name
  DefaultMultipliers,                     ! Dry-Bulb Temperature Range Modifier Type
  ,                                       ! Dry-Bulb Temperature Range Modifier Schedule Name
  ASHRAEClearSky;                         ! Solar Model Indicator

OS:ComponentData,
  {2b0bce24-6ffa-4ed8-a124-b095c5342ad0}, ! Handle
  Component Data 1,                       ! Name
  {9ff344fe-2ee3-48ef-b25d-d880b6228f4c}, ! UUID
  {de6f02ee-033d-422a-908d-5692e9be18b3}, ! Version UUID
  1366310077,                             ! Creation Timestamp
  1366310077,                             ! Version Timestamp
  {387f28c0-e29d-44e8-b272-bc683a7c8ba1}; ! Name of Object 1

