
OS:Version,
  {e59012a4-00c8-4ec5-bc41-d7cf75c3df5b}, ! Handle
  0.9.3;                                  ! Version Identifier

OS:SizingPeriod:DesignDay,
  {2d9f250c-25ae-4e79-b115-99aa5c3cfea8}, ! Handle
  San Diego/Int'l Airpor Ann Clg 1% Condns DP=>MDB, ! Name
  24.2,                                   ! Maximum Dry-Bulb Temperature {C}
  4.9,                                    ! Daily Dry-Bulb Temperature Range {deltaC}
  20.5,                                   ! Humidity Indicating Conditions at Maximum Dry-Bulb {BasedOnField A3}
  101217,                                 ! Barometric Pressure {Pa}
  4.6,                                    ! Wind Speed {m/s}
  300,                                    ! Wind Direction {deg}
  0,                                      ! Sky Clearness
  0,                                      ! Rain Indicator
  0,                                      ! Snow Indicator
  21,                                     ! Day of Month
  8,                                      ! Month
  SummerDesignDay,                        ! Day Type
  0,                                      ! Daylight Saving Time Indicator
  Dewpoint,                               ! Humidity Indicating Type
  ,                                       ! Humidity Indicating Day Schedule Name
  DefaultMultipliers,                     ! Dry-Bulb Temperature Range Modifier Type
  ,                                       ! Dry-Bulb Temperature Range Modifier Schedule Name
  ASHRAETau,                              ! Solar Model Indicator
  ,                                       ! Beam Solar Day Schedule Name
  ,                                       ! Diffuse Solar Day Schedule Name
  0.426,                                  ! ASHRAE Taub {dimensionless}
  2.214;                                  ! ASHRAE Taud {dimensionless}

OS:ComponentData,
  {cd2f9bd8-59ec-4442-9b4c-d59cc7cef8f0}, ! Handle
  Component Data 1,                       ! Name
  {8eca9bfe-5198-4de7-8689-11739fc3eb8c}, ! UUID
  {fb212bd8-ae9f-4f5b-bc0d-9a2fdcc8f976}, ! Version UUID
  1366306573,                             ! Creation Timestamp
  1366306573,                             ! Version Timestamp
  {2d9f250c-25ae-4e79-b115-99aa5c3cfea8}; ! Name of Object 1

