
OS:Version,
  {71d18804-c2f5-4498-a560-fcec0950e22b}, ! Handle
  0.9.3;                                  ! Version Identifier

OS:SizingPeriod:DesignDay,
  {0f0bf79a-3e5a-4872-85bb-a090e4081a57}, ! Handle
  St Paul Downtown Ap Ann Htg 99% Condns DB, ! Name
  -22,                                    ! Maximum Dry-Bulb Temperature {C}
  0,                                      ! Daily Dry-Bulb Temperature Range {deltaC}
  -22,                                    ! Humidity Indicating Conditions at Maximum Dry-Bulb {BasedOnField A3}
  98710,                                  ! Barometric Pressure {Pa}
  3.6,                                    ! Wind Speed {m/s}
  300,                                    ! Wind Direction {deg}
  0,                                      ! Sky Clearness
  0,                                      ! Rain Indicator
  0,                                      ! Snow Indicator
  21,                                     ! Day of Month
  1,                                      ! Month
  WinterDesignDay,                        ! Day Type
  0,                                      ! Daylight Saving Time Indicator
  Wetbulb,                                ! Humidity Indicating Type
  ,                                       ! Humidity Indicating Day Schedule Name
  DefaultMultipliers,                     ! Dry-Bulb Temperature Range Modifier Type
  ,                                       ! Dry-Bulb Temperature Range Modifier Schedule Name
  ASHRAEClearSky;                         ! Solar Model Indicator

OS:ComponentData,
  {22f74ad0-2f7b-40dd-ad3a-2897a7040bd2}, ! Handle
  Component Data 1,                       ! Name
  {6386d090-60af-4856-ac65-f6a99a61b754}, ! UUID
  {42564a8a-f6d2-4eb3-bc9b-6ae9f6cca300}, ! Version UUID
  1366308433,                             ! Creation Timestamp
  1366308433,                             ! Version Timestamp
  {0f0bf79a-3e5a-4872-85bb-a090e4081a57}; ! Name of Object 1

