
OS:Version,
  {cc48c860-38f8-4afe-ad9c-2955aa30c5f8}, ! Handle
  0.9.3;                                  ! Version Identifier

OS:SizingPeriod:DesignDay,
  {3498f024-f5a7-4907-9662-988890b313c2}, ! Handle
  Washington Dc Dulles IntL Ar Ann Htg 99.6% Condns DB, ! Name
  -11.8,                                  ! Maximum Dry-Bulb Temperature {C}
  0,                                      ! Daily Dry-Bulb Temperature Range {deltaC}
  -11.8,                                  ! Humidity Indicating Conditions at Maximum Dry-Bulb {BasedOnField A3}
  100344,                                 ! Barometric Pressure {Pa}
  2.7,                                    ! Wind Speed {m/s}
  310,                                    ! Wind Direction {deg}
  0,                                      ! Sky Clearness
  0,                                      ! Rain Indicator
  0,                                      ! Snow Indicator
  21,                                     ! Day of Month
  1,                                      ! Month
  WinterDesignDay,                        ! Day Type
  0,                                      ! Daylight Saving Time Indicator
  Wetbulb,                                ! Humidity Indicating Type
  ,                                       ! Humidity Indicating Day Schedule Name
  DefaultMultipliers,                     ! Dry-Bulb Temperature Range Modifier Type
  ,                                       ! Dry-Bulb Temperature Range Modifier Schedule Name
  ASHRAEClearSky;                         ! Solar Model Indicator

OS:ComponentData,
  {d3045872-7f57-4a05-b155-c2b0ab5b952d}, ! Handle
  Component Data 1,                       ! Name
  {8dbb4f2d-e803-4517-a5b2-ba7f79ed8aef}, ! UUID
  {0d3e40e1-972c-4603-87fb-066b820adac6}, ! Version UUID
  1366311216,                             ! Creation Timestamp
  1366311216,                             ! Version Timestamp
  {3498f024-f5a7-4907-9662-988890b313c2}; ! Name of Object 1

