
OS:Version,
  {72012cc5-8e77-4bd2-a004-23d028b48d8e}, ! Handle
  0.9.3;                                  ! Version Identifier

OS:SizingPeriod:DesignDay,
  {df8517b3-f569-4126-a7a2-1f8f9c94d75b}, ! Handle
  Minchumina Ann Hum_n 99% Condns DP=>MCDB, ! Name
  -26.8,                                  ! Maximum Dry-Bulb Temperature {C}
  0,                                      ! Daily Dry-Bulb Temperature Range {deltaC}
  -33.7,                                  ! Humidity Indicating Conditions at Maximum Dry-Bulb {BasedOnField A3}
  98792,                                  ! Barometric Pressure {Pa}
  0,                                      ! Wind Speed {m/s}
  270,                                    ! Wind Direction {deg}
  0,                                      ! Sky Clearness
  0,                                      ! Rain Indicator
  0,                                      ! Snow Indicator
  21,                                     ! Day of Month
  1,                                      ! Month
  WinterDesignDay,                        ! Day Type
  0,                                      ! Daylight Saving Time Indicator
  Dewpoint,                               ! Humidity Indicating Type
  ,                                       ! Humidity Indicating Day Schedule Name
  DefaultMultipliers,                     ! Dry-Bulb Temperature Range Modifier Type
  ,                                       ! Dry-Bulb Temperature Range Modifier Schedule Name
  ASHRAEClearSky;                         ! Solar Model Indicator

