
OS:Version,
  {834781cf-b857-4c5d-890d-3c85f48c3970}, ! Handle
  0.9.3;                                  ! Version Identifier

OS:SizingPeriod:DesignDay,
  {3d1f801c-1a7f-4621-896a-be285ca19a13}, ! Handle
  Page Muni  Amos Ann Htg Wind 99.6% Condns WS=>MCDB, ! Name
  6.3,                                    ! Maximum Dry-Bulb Temperature {C}
  0,                                      ! Daily Dry-Bulb Temperature Range {deltaC}
  6.3,                                    ! Humidity Indicating Conditions at Maximum Dry-Bulb {BasedOnField A3}
  86610,                                  ! Barometric Pressure {Pa}
  8.4,                                    ! Wind Speed {m/s}
  150,                                    ! Wind Direction {deg}
  0,                                      ! Sky Clearness
  0,                                      ! Rain Indicator
  0,                                      ! Snow Indicator
  21,                                     ! Day of Month
  12,                                     ! Month
  WinterDesignDay,                        ! Day Type
  0,                                      ! Daylight Saving Time Indicator
  Wetbulb,                                ! Humidity Indicating Type
  ,                                       ! Humidity Indicating Day Schedule Name
  DefaultMultipliers,                     ! Dry-Bulb Temperature Range Modifier Type
  ,                                       ! Dry-Bulb Temperature Range Modifier Schedule Name
  ASHRAEClearSky;                         ! Solar Model Indicator

