
OS:Version,
  {ad69b2fa-3933-43a5-86c7-1d70432825db}, ! Handle
  0.9.3;                                  ! Version Identifier

OS:SizingPeriod:DesignDay,
  {812ac4dc-d3f6-40fa-8394-f8df2dca4e54}, ! Handle
  Ogden Hill Afb Ann Htg 99% Condns DB,   ! Name
  -11,                                    ! Maximum Dry-Bulb Temperature {C}
  0,                                      ! Daily Dry-Bulb Temperature Range {deltaC}
  -11,                                    ! Humidity Indicating Conditions at Maximum Dry-Bulb {BasedOnField A3}
  84982,                                  ! Barometric Pressure {Pa}
  5.2,                                    ! Wind Speed {m/s}
  100,                                    ! Wind Direction {deg}
  0,                                      ! Sky Clearness
  0,                                      ! Rain Indicator
  0,                                      ! Snow Indicator
  21,                                     ! Day of Month
  1,                                      ! Month
  WinterDesignDay,                        ! Day Type
  0,                                      ! Daylight Saving Time Indicator
  Wetbulb,                                ! Humidity Indicating Type
  ,                                       ! Humidity Indicating Day Schedule Name
  DefaultMultipliers,                     ! Dry-Bulb Temperature Range Modifier Type
  ,                                       ! Dry-Bulb Temperature Range Modifier Schedule Name
  ASHRAEClearSky;                         ! Solar Model Indicator

OS:ComponentData,
  {3319876b-3758-4afc-a4f0-42e3167f352c}, ! Handle
  Component Data 1,                       ! Name
  {8994fbe3-0fd9-4689-afe0-a7b15577e976}, ! UUID
  {32451b20-a1ce-45f9-9697-5834d6447eda}, ! Version UUID
  1366310968,                             ! Creation Timestamp
  1366310968,                             ! Version Timestamp
  {812ac4dc-d3f6-40fa-8394-f8df2dca4e54}; ! Name of Object 1

