
OS:Version,
  {a6f339d4-c225-4cc9-9acd-cc6478a76a34}, ! Handle
  0.9.3;                                  ! Version Identifier

OS:SizingPeriod:DesignDay,
  {d07084fd-d616-49fc-b36f-8e46d8acb3c0}, ! Handle
  Port Heiden Ann Clg 1% Condns Enth=>MDB, ! Name
  15.8,                                   ! Maximum Dry-Bulb Temperature {C}
  5.4,                                    ! Daily Dry-Bulb Temperature Range {deltaC}
  36300,                                  ! Humidity Indicating Conditions at Maximum Dry-Bulb {BasedOnField A3}
  100977,                                 ! Barometric Pressure {Pa}
  7.3,                                    ! Wind Speed {m/s}
  150,                                    ! Wind Direction {deg}
  0,                                      ! Sky Clearness
  0,                                      ! Rain Indicator
  0,                                      ! Snow Indicator
  21,                                     ! Day of Month
  8,                                      ! Month
  SummerDesignDay,                        ! Day Type
  0,                                      ! Daylight Saving Time Indicator
  Enthalpy,                               ! Humidity Indicating Type
  ,                                       ! Humidity Indicating Day Schedule Name
  DefaultMultipliers,                     ! Dry-Bulb Temperature Range Modifier Type
  ,                                       ! Dry-Bulb Temperature Range Modifier Schedule Name
  ASHRAETau,                              ! Solar Model Indicator
  ,                                       ! Beam Solar Day Schedule Name
  ,                                       ! Diffuse Solar Day Schedule Name
  0.375,                                  ! ASHRAE Taub {dimensionless}
  2.3;                                    ! ASHRAE Taud {dimensionless}

OS:ComponentData,
  {9f4cbcf7-8ec4-4ac0-b6d0-630388a17493}, ! Handle
  Component Data 1,                       ! Name
  {18ebd3cf-36ac-489e-a70f-c3bca7b9bc78}, ! UUID
  {ec72c6a7-c4ae-4f34-97a3-7f180596bb41}, ! Version UUID
  1366305508,                             ! Creation Timestamp
  1366305508,                             ! Version Timestamp
  {d07084fd-d616-49fc-b36f-8e46d8acb3c0}; ! Name of Object 1

