
OS:Version,
  {8388ce49-2c83-4202-a1c9-00a92f53e8be}, ! Handle
  0.9.3;                                  ! Version Identifier

OS:SizingPeriod:DesignDay,
  {393c4ab7-f9c0-4d54-aa75-4c47189d4b16}, ! Handle
  Mount Vernon  Awos Ann Clg .4% Condns WB=>MDB, ! Name
  31.4,                                   ! Maximum Dry-Bulb Temperature {C}
  11,                                     ! Daily Dry-Bulb Temperature Range {deltaC}
  27,                                     ! Humidity Indicating Conditions at Maximum Dry-Bulb {BasedOnField A3}
  99583,                                  ! Barometric Pressure {Pa}
  3.9,                                    ! Wind Speed {m/s}
  200,                                    ! Wind Direction {deg}
  0,                                      ! Sky Clearness
  0,                                      ! Rain Indicator
  0,                                      ! Snow Indicator
  21,                                     ! Day of Month
  7,                                      ! Month
  SummerDesignDay,                        ! Day Type
  0,                                      ! Daylight Saving Time Indicator
  Wetbulb,                                ! Humidity Indicating Type
  ,                                       ! Humidity Indicating Day Schedule Name
  DefaultMultipliers,                     ! Dry-Bulb Temperature Range Modifier Type
  ,                                       ! Dry-Bulb Temperature Range Modifier Schedule Name
  ASHRAETau,                              ! Solar Model Indicator
  ,                                       ! Beam Solar Day Schedule Name
  ,                                       ! Diffuse Solar Day Schedule Name
  0.484,                                  ! ASHRAE Taub {dimensionless}
  1.959;                                  ! ASHRAE Taud {dimensionless}

OS:ComponentData,
  {6aad2c3e-84a1-4bc0-ba70-6ee183fc4eec}, ! Handle
  Component Data 1,                       ! Name
  {c71f57a7-d339-4e1f-8214-41fbc3f65a12}, ! UUID
  {cc27eb24-6980-4b6e-9693-34d11223fb56}, ! Version UUID
  1366307376,                             ! Creation Timestamp
  1366307376,                             ! Version Timestamp
  {393c4ab7-f9c0-4d54-aa75-4c47189d4b16}; ! Name of Object 1

