
OS:Version,
  {d61931de-5c35-476c-9520-26bb0e5c2f93}, ! Handle
  0.9.3;                                  ! Version Identifier

OS:SizingPeriod:DesignDay,
  {f6a326bb-8037-4587-a705-be42114aadcf}, ! Handle
  SEATTLE Ann Clg 2% Condns DP=>MDB,      ! Name
  19.4,                                   ! Maximum Dry-Bulb Temperature {C}
  10.4,                                   ! Daily Dry-Bulb Temperature Range {deltaC}
  14.5,                                   ! Humidity Indicating Conditions at Maximum Dry-Bulb {BasedOnField A3}
  99868,                                  ! Barometric Pressure {Pa}
  4.2,                                    ! Wind Speed {m/s}
  350,                                    ! Wind Direction {deg}
  0,                                      ! Sky Clearness
  0,                                      ! Rain Indicator
  0,                                      ! Snow Indicator
  21,                                     ! Day of Month
  8,                                      ! Month
  SummerDesignDay,                        ! Day Type
  0,                                      ! Daylight Saving Time Indicator
  Dewpoint,                               ! Humidity Indicating Type
  ,                                       ! Humidity Indicating Day Schedule Name
  DefaultMultipliers,                     ! Dry-Bulb Temperature Range Modifier Type
  ,                                       ! Dry-Bulb Temperature Range Modifier Schedule Name
  ASHRAETau,                              ! Solar Model Indicator
  ,                                       ! Beam Solar Day Schedule Name
  ,                                       ! Diffuse Solar Day Schedule Name
  0.352,                                  ! ASHRAE Taub {dimensionless}
  2.561;                                  ! ASHRAE Taud {dimensionless}

OS:ComponentData,
  {9941b362-0840-47d7-8b3f-7b1b8e4667a4}, ! Handle
  Component Data 1,                       ! Name
  {2398e078-3c61-4386-8418-d54770b6a908}, ! UUID
  {53d45a88-2de0-43e0-882d-536ebfc11838}, ! Version UUID
  1366311355,                             ! Creation Timestamp
  1366311355,                             ! Version Timestamp
  {f6a326bb-8037-4587-a705-be42114aadcf}; ! Name of Object 1

