
OS:Version,
  {7d0d6aa6-28f7-433d-8074-1849b989fe97}, ! Handle
  0.9.3;                                  ! Version Identifier

OS:SizingPeriod:DesignDay,
  {c1cbd126-fbcb-4fda-a4d1-24858c556d2d}, ! Handle
  Tacoma Narrows Ann Clg .4% Condns Enth=>MDB, ! Name
  26.8,                                   ! Maximum Dry-Bulb Temperature {C}
  10.7,                                   ! Daily Dry-Bulb Temperature Range {deltaC}
  53300,                                  ! Humidity Indicating Conditions at Maximum Dry-Bulb {BasedOnField A3}
  100237,                                 ! Barometric Pressure {Pa}
  3.5,                                    ! Wind Speed {m/s}
  10,                                     ! Wind Direction {deg}
  0,                                      ! Sky Clearness
  0,                                      ! Rain Indicator
  0,                                      ! Snow Indicator
  21,                                     ! Day of Month
  7,                                      ! Month
  SummerDesignDay,                        ! Day Type
  0,                                      ! Daylight Saving Time Indicator
  Enthalpy,                               ! Humidity Indicating Type
  ,                                       ! Humidity Indicating Day Schedule Name
  DefaultMultipliers,                     ! Dry-Bulb Temperature Range Modifier Type
  ,                                       ! Dry-Bulb Temperature Range Modifier Schedule Name
  ASHRAETau,                              ! Solar Model Indicator
  ,                                       ! Beam Solar Day Schedule Name
  ,                                       ! Diffuse Solar Day Schedule Name
  0.36,                                   ! ASHRAE Taub {dimensionless}
  2.5;                                    ! ASHRAE Taud {dimensionless}

OS:ComponentData,
  {8e95a527-984c-4efa-ac4a-758b6304b8db}, ! Handle
  Component Data 1,                       ! Name
  {21479a7e-b69f-47e8-a7c1-3dec215746ad}, ! UUID
  {e77e1a17-edee-4593-b652-3a5cd4ae9d4e}, ! Version UUID
  1366311413,                             ! Creation Timestamp
  1366311413,                             ! Version Timestamp
  {c1cbd126-fbcb-4fda-a4d1-24858c556d2d}; ! Name of Object 1

