
OS:Version,
  {b36cf46b-8b6a-44b0-8f88-c98714c0384d}, ! Handle
  0.9.3;                                  ! Version Identifier

OS:SizingPeriod:DesignDay,
  {dce0f191-5e4c-4bdd-84da-fc718bd1bd02}, ! Handle
  Poughkeepsie Dutchess Co Ap Ann Clg .4% Condns DB=>MWB, ! Name
  33,                                     ! Maximum Dry-Bulb Temperature {C}
  12.4,                                   ! Daily Dry-Bulb Temperature Range {deltaC}
  23.3,                                   ! Humidity Indicating Conditions at Maximum Dry-Bulb {BasedOnField A3}
  100762,                                 ! Barometric Pressure {Pa}
  3.9,                                    ! Wind Speed {m/s}
  240,                                    ! Wind Direction {deg}
  0,                                      ! Sky Clearness
  0,                                      ! Rain Indicator
  0,                                      ! Snow Indicator
  21,                                     ! Day of Month
  7,                                      ! Month
  SummerDesignDay,                        ! Day Type
  0,                                      ! Daylight Saving Time Indicator
  Wetbulb,                                ! Humidity Indicating Type
  ,                                       ! Humidity Indicating Day Schedule Name
  DefaultMultipliers,                     ! Dry-Bulb Temperature Range Modifier Type
  ,                                       ! Dry-Bulb Temperature Range Modifier Schedule Name
  ASHRAETau,                              ! Solar Model Indicator
  ,                                       ! Beam Solar Day Schedule Name
  ,                                       ! Diffuse Solar Day Schedule Name
  0.49,                                   ! ASHRAE Taub {dimensionless}
  1.93;                                   ! ASHRAE Taud {dimensionless}

OS:ComponentData,
  {6008358f-611f-4fbe-be66-5bd2801f14b1}, ! Handle
  Component Data 1,                       ! Name
  {85f37f3b-5582-4d9e-a37f-a9fa6d4338c5}, ! UUID
  {a92a37e9-22b2-4af4-b14e-5b740196fc37}, ! Version UUID
  1366309704,                             ! Creation Timestamp
  1366309704,                             ! Version Timestamp
  {dce0f191-5e4c-4bdd-84da-fc718bd1bd02}; ! Name of Object 1

