
OS:Version,
  {9af26edd-9c85-4017-a2da-6944d8feae37}, ! Handle
  0.9.3;                                  ! Version Identifier

OS:SizingPeriod:DesignDay,
  {ccbc5f2e-f261-4060-a8e5-03843da58ad7}, ! Handle
  Meridian Ann Clg 2% Condns Enth=>MDB,   ! Name
  31.1,                                   ! Maximum Dry-Bulb Temperature {C}
  11.4,                                   ! Daily Dry-Bulb Temperature Range {deltaC}
  78200,                                  ! Humidity Indicating Conditions at Maximum Dry-Bulb {BasedOnField A3}
  100201,                                 ! Barometric Pressure {Pa}
  3.2,                                    ! Wind Speed {m/s}
  0,                                      ! Wind Direction {deg}
  0,                                      ! Sky Clearness
  0,                                      ! Rain Indicator
  0,                                      ! Snow Indicator
  21,                                     ! Day of Month
  7,                                      ! Month
  SummerDesignDay,                        ! Day Type
  0,                                      ! Daylight Saving Time Indicator
  Enthalpy,                               ! Humidity Indicating Type
  ,                                       ! Humidity Indicating Day Schedule Name
  DefaultMultipliers,                     ! Dry-Bulb Temperature Range Modifier Type
  ,                                       ! Dry-Bulb Temperature Range Modifier Schedule Name
  ASHRAETau,                              ! Solar Model Indicator
  ,                                       ! Beam Solar Day Schedule Name
  ,                                       ! Diffuse Solar Day Schedule Name
  0.552,                                  ! ASHRAE Taub {dimensionless}
  1.818;                                  ! ASHRAE Taud {dimensionless}

OS:ComponentData,
  {366be8e4-8883-42cf-b2c3-442a1585e8db}, ! Handle
  Component Data 1,                       ! Name
  {4f89c883-4880-4f1a-9020-6fad6180ac5e}, ! UUID
  {9aceaba5-8bac-4d98-b24b-e206fa6e3fe5}, ! Version UUID
  1366308663,                             ! Creation Timestamp
  1366308663,                             ! Version Timestamp
  {ccbc5f2e-f261-4060-a8e5-03843da58ad7}; ! Name of Object 1

