
OS:Version,
  {1751381f-0cc9-4f44-acdd-10dc4c6ea04a}, ! Handle
  0.9.3;                                  ! Version Identifier

OS:SizingPeriod:DesignDay,
  {c100eeae-b8b0-45ed-a797-59f2b4df17ef}, ! Handle
  PUEBLO Ann Clg .4% Condns DB=>MWB,      ! Name
  36.9,                                   ! Maximum Dry-Bulb Temperature {C}
  18,                                     ! Daily Dry-Bulb Temperature Range {deltaC}
  17.1,                                   ! Humidity Indicating Conditions at Maximum Dry-Bulb {BasedOnField A3}
  85191,                                  ! Barometric Pressure {Pa}
  5.1,                                    ! Wind Speed {m/s}
  120,                                    ! Wind Direction {deg}
  0,                                      ! Sky Clearness
  0,                                      ! Rain Indicator
  0,                                      ! Snow Indicator
  21,                                     ! Day of Month
  7,                                      ! Month
  SummerDesignDay,                        ! Day Type
  0,                                      ! Daylight Saving Time Indicator
  Wetbulb,                                ! Humidity Indicating Type
  ,                                       ! Humidity Indicating Day Schedule Name
  DefaultMultipliers,                     ! Dry-Bulb Temperature Range Modifier Type
  ,                                       ! Dry-Bulb Temperature Range Modifier Schedule Name
  ASHRAETau,                              ! Solar Model Indicator
  ,                                       ! Beam Solar Day Schedule Name
  ,                                       ! Diffuse Solar Day Schedule Name
  0.435,                                  ! ASHRAE Taub {dimensionless}
  1.969;                                  ! ASHRAE Taud {dimensionless}

OS:ComponentData,
  {23901b6c-6459-48ea-bd44-8c0a08b54f0a}, ! Handle
  Component Data 1,                       ! Name
  {80a0fc95-1b07-4d72-b546-7b8a9df2021d}, ! UUID
  {c63d8fca-40d1-4320-9af4-4c82e54945a2}, ! Version UUID
  1366306726,                             ! Creation Timestamp
  1366306726,                             ! Version Timestamp
  {c100eeae-b8b0-45ed-a797-59f2b4df17ef}; ! Name of Object 1

