
OS:Version,
  {417cc4ce-c767-419b-974b-f99b63aa4875}, ! Handle
  0.9.3;                                  ! Version Identifier

OS:SizingPeriod:DesignDay,
  {21345da0-3c82-4822-bdd3-279acc5734e6}, ! Handle
  Provo Muni  Awos Ann Clg .4% Condns DP=>MDB, ! Name
  23.9,                                   ! Maximum Dry-Bulb Temperature {C}
  16.6,                                   ! Daily Dry-Bulb Temperature Range {deltaC}
  15.2,                                   ! Humidity Indicating Conditions at Maximum Dry-Bulb {BasedOnField A3}
  85924,                                  ! Barometric Pressure {Pa}
  2.8,                                    ! Wind Speed {m/s}
  150,                                    ! Wind Direction {deg}
  0,                                      ! Sky Clearness
  0,                                      ! Rain Indicator
  0,                                      ! Snow Indicator
  21,                                     ! Day of Month
  7,                                      ! Month
  SummerDesignDay,                        ! Day Type
  0,                                      ! Daylight Saving Time Indicator
  Dewpoint,                               ! Humidity Indicating Type
  ,                                       ! Humidity Indicating Day Schedule Name
  DefaultMultipliers,                     ! Dry-Bulb Temperature Range Modifier Type
  ,                                       ! Dry-Bulb Temperature Range Modifier Schedule Name
  ASHRAETau,                              ! Solar Model Indicator
  ,                                       ! Beam Solar Day Schedule Name
  ,                                       ! Diffuse Solar Day Schedule Name
  0.425,                                  ! ASHRAE Taub {dimensionless}
  2.042;                                  ! ASHRAE Taud {dimensionless}

OS:ComponentData,
  {ba4a10ec-ecd4-4e4b-8aa8-7f0a8d198e39}, ! Handle
  Component Data 1,                       ! Name
  {d85c6818-a6a5-4a02-b53d-cf7bd6676166}, ! UUID
  {56663ffa-56b5-46c0-8c8f-d2f042a8b52d}, ! Version UUID
  1366310978,                             ! Creation Timestamp
  1366310978,                             ! Version Timestamp
  {21345da0-3c82-4822-bdd3-279acc5734e6}; ! Name of Object 1

