
OS:Version,
  {e39d332f-6fc3-4f03-a976-8957c8f3f47d}, ! Handle
  0.9.3;                                  ! Version Identifier

OS:SizingPeriod:DesignDay,
  {339fb10c-5791-48b7-8d9a-7fe85ef52ac5}, ! Handle
  RENO Ann Clg .4% Condns DB=>MWB,        ! Name
  35.4,                                   ! Maximum Dry-Bulb Temperature {C}
  18.8,                                   ! Daily Dry-Bulb Temperature Range {deltaC}
  16.6,                                   ! Humidity Indicating Conditions at Maximum Dry-Bulb {BasedOnField A3}
  86219,                                  ! Barometric Pressure {Pa}
  4.5,                                    ! Wind Speed {m/s}
  270,                                    ! Wind Direction {deg}
  0,                                      ! Sky Clearness
  0,                                      ! Rain Indicator
  0,                                      ! Snow Indicator
  21,                                     ! Day of Month
  7,                                      ! Month
  SummerDesignDay,                        ! Day Type
  0,                                      ! Daylight Saving Time Indicator
  Wetbulb,                                ! Humidity Indicating Type
  ,                                       ! Humidity Indicating Day Schedule Name
  DefaultMultipliers,                     ! Dry-Bulb Temperature Range Modifier Type
  ,                                       ! Dry-Bulb Temperature Range Modifier Schedule Name
  ASHRAETau,                              ! Solar Model Indicator
  ,                                       ! Beam Solar Day Schedule Name
  ,                                       ! Diffuse Solar Day Schedule Name
  0.398,                                  ! ASHRAE Taub {dimensionless}
  2.123;                                  ! ASHRAE Taud {dimensionless}

OS:ComponentData,
  {1e877602-b766-410d-a9d3-558c20db3792}, ! Handle
  Component Data 1,                       ! Name
  {b6292725-10d5-4f9b-8867-714fdb944c4d}, ! UUID
  {019464cb-3856-4703-84f9-3ed73a8785dd}, ! Version UUID
  1366309540,                             ! Creation Timestamp
  1366309540,                             ! Version Timestamp
  {339fb10c-5791-48b7-8d9a-7fe85ef52ac5}; ! Name of Object 1

