
OS:Version,
  {899bc03e-d616-4c0c-b4f5-591b323111e1}, ! Handle
  0.9.3;                                  ! Version Identifier

OS:SizingPeriod:DesignDay,
  {a659276b-4523-4baf-81e4-4ca58939f1c4}, ! Handle
  SAN_ANGELO Ann Clg .4% Condns Enth=>MDB, ! Name
  31.2,                                   ! Maximum Dry-Bulb Temperature {C}
  12.8,                                   ! Daily Dry-Bulb Temperature Range {deltaC}
  74600,                                  ! Humidity Indicating Conditions at Maximum Dry-Bulb {BasedOnField A3}
  94526,                                  ! Barometric Pressure {Pa}
  4.9,                                    ! Wind Speed {m/s}
  170,                                    ! Wind Direction {deg}
  0,                                      ! Sky Clearness
  0,                                      ! Rain Indicator
  0,                                      ! Snow Indicator
  21,                                     ! Day of Month
  7,                                      ! Month
  SummerDesignDay,                        ! Day Type
  0,                                      ! Daylight Saving Time Indicator
  Enthalpy,                               ! Humidity Indicating Type
  ,                                       ! Humidity Indicating Day Schedule Name
  DefaultMultipliers,                     ! Dry-Bulb Temperature Range Modifier Type
  ,                                       ! Dry-Bulb Temperature Range Modifier Schedule Name
  ASHRAETau,                              ! Solar Model Indicator
  ,                                       ! Beam Solar Day Schedule Name
  ,                                       ! Diffuse Solar Day Schedule Name
  0.454,                                  ! ASHRAE Taub {dimensionless}
  2.053;                                  ! ASHRAE Taud {dimensionless}

OS:ComponentData,
  {5f28a6be-d9ce-4237-80d1-61fc07658c50}, ! Handle
  Component Data 1,                       ! Name
  {07500eae-1325-441a-afba-5d9f69b2ed14}, ! UUID
  {4d4641e8-c078-43f7-82a5-cbcc1b85fa42}, ! Version UUID
  1366310879,                             ! Creation Timestamp
  1366310879,                             ! Version Timestamp
  {a659276b-4523-4baf-81e4-4ca58939f1c4}; ! Name of Object 1

