
OS:Version,
  {6b0c91e3-4a0c-4938-8407-514bf0c99ae7}, ! Handle
  0.9.3;                                  ! Version Identifier

OS:SizingPeriod:DesignDay,
  {c3c6597b-e756-42b6-9159-bc5943c46d2a}, ! Handle
  Middleton Island Aut Ann Clg 2% Condns WB=>MDB, ! Name
  14.4,                                   ! Maximum Dry-Bulb Temperature {C}
  3.4,                                    ! Daily Dry-Bulb Temperature Range {deltaC}
  12.5,                                   ! Humidity Indicating Conditions at Maximum Dry-Bulb {BasedOnField A3}
  101157,                                 ! Barometric Pressure {Pa}
  3.7,                                    ! Wind Speed {m/s}
  270,                                    ! Wind Direction {deg}
  0,                                      ! Sky Clearness
  0,                                      ! Rain Indicator
  0,                                      ! Snow Indicator
  21,                                     ! Day of Month
  8,                                      ! Month
  SummerDesignDay,                        ! Day Type
  0,                                      ! Daylight Saving Time Indicator
  Wetbulb,                                ! Humidity Indicating Type
  ,                                       ! Humidity Indicating Day Schedule Name
  DefaultMultipliers,                     ! Dry-Bulb Temperature Range Modifier Type
  ,                                       ! Dry-Bulb Temperature Range Modifier Schedule Name
  ASHRAETau,                              ! Solar Model Indicator
  ,                                       ! Beam Solar Day Schedule Name
  ,                                       ! Diffuse Solar Day Schedule Name
  0.366,                                  ! ASHRAE Taub {dimensionless}
  2.392;                                  ! ASHRAE Taud {dimensionless}

OS:ComponentData,
  {7f2e893b-a993-44aa-8be0-d41f27346987}, ! Handle
  Component Data 1,                       ! Name
  {b5c4bcc3-ce8a-49a0-92f4-26e20d5b07f4}, ! UUID
  {cec089d9-cd3d-4184-b9eb-ced9f760e1af}, ! Version UUID
  1366305429,                             ! Creation Timestamp
  1366305429,                             ! Version Timestamp
  {c3c6597b-e756-42b6-9159-bc5943c46d2a}; ! Name of Object 1

