
OS:Version,
  {34233803-d11b-4c98-b893-7f99a971b8ff}, ! Handle
  0.9.3;                                  ! Version Identifier

OS:SizingPeriod:DesignDay,
  {cb9b87ff-73cd-49cd-b896-bcd04b008584}, ! Handle
  Tucson Ann Clg 2% Condns DP=>MDB,       ! Name
  25.3,                                   ! Maximum Dry-Bulb Temperature {C}
  13.8,                                   ! Daily Dry-Bulb Temperature Range {deltaC}
  19.1,                                   ! Humidity Indicating Conditions at Maximum Dry-Bulb {BasedOnField A3}
  92310,                                  ! Barometric Pressure {Pa}
  5,                                      ! Wind Speed {m/s}
  300,                                    ! Wind Direction {deg}
  0,                                      ! Sky Clearness
  0,                                      ! Rain Indicator
  0,                                      ! Snow Indicator
  21,                                     ! Day of Month
  7,                                      ! Month
  SummerDesignDay,                        ! Day Type
  0,                                      ! Daylight Saving Time Indicator
  Dewpoint,                               ! Humidity Indicating Type
  ,                                       ! Humidity Indicating Day Schedule Name
  DefaultMultipliers,                     ! Dry-Bulb Temperature Range Modifier Type
  ,                                       ! Dry-Bulb Temperature Range Modifier Schedule Name
  ASHRAETau,                              ! Solar Model Indicator
  ,                                       ! Beam Solar Day Schedule Name
  ,                                       ! Diffuse Solar Day Schedule Name
  0.555,                                  ! ASHRAE Taub {dimensionless}
  1.73;                                   ! ASHRAE Taud {dimensionless}

OS:ComponentData,
  {9472927c-d870-4121-93f6-f82a48da2de1}, ! Handle
  Component Data 1,                       ! Name
  {cc31d48a-8371-402d-803d-83841bb1258e}, ! UUID
  {5b8826bd-1f66-40f5-ba7d-da14ee10126b}, ! Version UUID
  1366306322,                             ! Creation Timestamp
  1366306322,                             ! Version Timestamp
  {cb9b87ff-73cd-49cd-b896-bcd04b008584}; ! Name of Object 1

