
OS:Version,
  {a7eeb23b-19e7-4d0f-b262-94faee924dc1}, ! Handle
  0.9.3;                                  ! Version Identifier

OS:SizingPeriod:DesignDay,
  {23074477-05f8-476d-bc5d-512ecf8d16d1}, ! Handle
  Wenatchee Pangborn Ann Htg Wind 99.6% Condns WS=>MCDB, ! Name
  5.5,                                    ! Maximum Dry-Bulb Temperature {C}
  0,                                      ! Daily Dry-Bulb Temperature Range {deltaC}
  5.5,                                    ! Humidity Indicating Conditions at Maximum Dry-Bulb {BasedOnField A3}
  96854,                                  ! Barometric Pressure {Pa}
  9.4,                                    ! Wind Speed {m/s}
  280,                                    ! Wind Direction {deg}
  0,                                      ! Sky Clearness
  0,                                      ! Rain Indicator
  0,                                      ! Snow Indicator
  21,                                     ! Day of Month
  12,                                     ! Month
  WinterDesignDay,                        ! Day Type
  0,                                      ! Daylight Saving Time Indicator
  Wetbulb,                                ! Humidity Indicating Type
  ,                                       ! Humidity Indicating Day Schedule Name
  DefaultMultipliers,                     ! Dry-Bulb Temperature Range Modifier Type
  ,                                       ! Dry-Bulb Temperature Range Modifier Schedule Name
  ASHRAEClearSky;                         ! Solar Model Indicator

OS:ComponentData,
  {4d002b3b-17a5-48cf-86ef-1027d869688b}, ! Handle
  Component Data 1,                       ! Name
  {adc0a3b3-2769-4c57-b1d4-80ef0803ade2}, ! UUID
  {85ac7f1c-282d-4d00-aad8-89e599ac1cea}, ! Version UUID
  1366311425,                             ! Creation Timestamp
  1366311425,                             ! Version Timestamp
  {23074477-05f8-476d-bc5d-512ecf8d16d1}; ! Name of Object 1

