
OS:Version,
  {e32141e2-5701-4bea-8385-c1535c45e9fc}, ! Handle
  0.9.3;                                  ! Version Identifier

OS:SizingPeriod:DesignDay,
  {94f01ce1-5144-425a-b2d9-4c8d916af33d}, ! Handle
  Monroe Regional Ap Ann Hum_n 99% Condns DP=>MCDB, ! Name
  0.7,                                    ! Maximum Dry-Bulb Temperature {C}
  0,                                      ! Daily Dry-Bulb Temperature Range {deltaC}
  -8.7,                                   ! Humidity Indicating Conditions at Maximum Dry-Bulb {BasedOnField A3}
  100845,                                 ! Barometric Pressure {Pa}
  2.9,                                    ! Wind Speed {m/s}
  10,                                     ! Wind Direction {deg}
  0,                                      ! Sky Clearness
  0,                                      ! Rain Indicator
  0,                                      ! Snow Indicator
  21,                                     ! Day of Month
  1,                                      ! Month
  WinterDesignDay,                        ! Day Type
  0,                                      ! Daylight Saving Time Indicator
  Dewpoint,                               ! Humidity Indicating Type
  ,                                       ! Humidity Indicating Day Schedule Name
  DefaultMultipliers,                     ! Dry-Bulb Temperature Range Modifier Type
  ,                                       ! Dry-Bulb Temperature Range Modifier Schedule Name
  ASHRAEClearSky;                         ! Solar Model Indicator

OS:ComponentData,
  {75880ebe-cb1a-4c28-ba1e-fe1be454d428}, ! Handle
  Component Data 1,                       ! Name
  {2fb65e10-6696-4c7e-8f21-e67e0c4d1a7a}, ! UUID
  {e0d7a50d-14de-42f9-9cbe-cb83c42c2487}, ! Version UUID
  1366307735,                             ! Creation Timestamp
  1366307735,                             ! Version Timestamp
  {94f01ce1-5144-425a-b2d9-4c8d916af33d}; ! Name of Object 1

