
OS:Version,
  {3e656328-3f6d-4a26-9eac-a7c81c1eed93}, ! Handle
  0.9.3;                                  ! Version Identifier

OS:SizingPeriod:DesignDay,
  {32c0e0f0-5858-4993-b6c4-a7620d58e9ed}, ! Handle
  Marshfield Muni Ann Clg 1% Condns Enth=>MDB, ! Name
  27.9,                                   ! Maximum Dry-Bulb Temperature {C}
  11.2,                                   ! Daily Dry-Bulb Temperature Range {deltaC}
  70300,                                  ! Humidity Indicating Conditions at Maximum Dry-Bulb {BasedOnField A3}
  96738,                                  ! Barometric Pressure {Pa}
  4.2,                                    ! Wind Speed {m/s}
  190,                                    ! Wind Direction {deg}
  0,                                      ! Sky Clearness
  0,                                      ! Rain Indicator
  0,                                      ! Snow Indicator
  21,                                     ! Day of Month
  7,                                      ! Month
  SummerDesignDay,                        ! Day Type
  0,                                      ! Daylight Saving Time Indicator
  Enthalpy,                               ! Humidity Indicating Type
  ,                                       ! Humidity Indicating Day Schedule Name
  DefaultMultipliers,                     ! Dry-Bulb Temperature Range Modifier Type
  ,                                       ! Dry-Bulb Temperature Range Modifier Schedule Name
  ASHRAETau,                              ! Solar Model Indicator
  ,                                       ! Beam Solar Day Schedule Name
  ,                                       ! Diffuse Solar Day Schedule Name
  0.412,                                  ! ASHRAE Taub {dimensionless}
  2.17;                                   ! ASHRAE Taud {dimensionless}

OS:ComponentData,
  {d772e09d-3297-4d20-82d3-842de5ec8118}, ! Handle
  Component Data 1,                       ! Name
  {23141aa7-91e6-42a2-a2ce-34c0f28d662f}, ! UUID
  {30b4085d-82a9-44af-bfd5-5c3be9e3073d}, ! Version UUID
  1366311544,                             ! Creation Timestamp
  1366311544,                             ! Version Timestamp
  {32c0e0f0-5858-4993-b6c4-a7620d58e9ed}; ! Name of Object 1

