
OS:Version,
  {d273c61d-8476-455b-a7d6-f69e7da5220c}, ! Handle
  0.9.3;                                  ! Version Identifier

OS:SizingPeriod:DesignDay,
  {9dea851f-05c8-4dca-95da-2e8746b98d82}, ! Handle
  Maxwell Afb Ann Htg Wind 99.6% Condns WS=>MCDB, ! Name
  11.3,                                   ! Maximum Dry-Bulb Temperature {C}
  0,                                      ! Daily Dry-Bulb Temperature Range {deltaC}
  11.3,                                   ! Humidity Indicating Conditions at Maximum Dry-Bulb {BasedOnField A3}
  100690,                                 ! Barometric Pressure {Pa}
  9.3,                                    ! Wind Speed {m/s}
  340,                                    ! Wind Direction {deg}
  0,                                      ! Sky Clearness
  0,                                      ! Rain Indicator
  0,                                      ! Snow Indicator
  21,                                     ! Day of Month
  1,                                      ! Month
  WinterDesignDay,                        ! Day Type
  0,                                      ! Daylight Saving Time Indicator
  Wetbulb,                                ! Humidity Indicating Type
  ,                                       ! Humidity Indicating Day Schedule Name
  DefaultMultipliers,                     ! Dry-Bulb Temperature Range Modifier Type
  ,                                       ! Dry-Bulb Temperature Range Modifier Schedule Name
  ASHRAEClearSky;                         ! Solar Model Indicator

OS:ComponentData,
  {8300d086-8165-455c-a67d-bf120ed6679a}, ! Handle
  Component Data 1,                       ! Name
  {07a5f3ad-9f42-44d6-a691-292f79be2801}, ! UUID
  {3b8282d7-0882-43a1-83ae-44cea669424d}, ! Version UUID
  1366305683,                             ! Creation Timestamp
  1366305683,                             ! Version Timestamp
  {9dea851f-05c8-4dca-95da-2e8746b98d82}; ! Name of Object 1

