
OS:Version,
  {e9428f54-d392-42fe-aa83-db8049e32d71}, ! Handle
  0.9.3;                                  ! Version Identifier

OS:SizingPeriod:DesignDay,
  {47ddf861-64d7-4404-8584-388a504f1d8f}, ! Handle
  Redwood Falls Muni Ann Hum_n 99.6% Condns DP=>MCDB, ! Name
  -26.3,                                  ! Maximum Dry-Bulb Temperature {C}
  0,                                      ! Daily Dry-Bulb Temperature Range {deltaC}
  -30.5,                                  ! Humidity Indicating Conditions at Maximum Dry-Bulb {BasedOnField A3}
  97633,                                  ! Barometric Pressure {Pa}
  4.6,                                    ! Wind Speed {m/s}
  300,                                    ! Wind Direction {deg}
  0,                                      ! Sky Clearness
  0,                                      ! Rain Indicator
  0,                                      ! Snow Indicator
  21,                                     ! Day of Month
  1,                                      ! Month
  WinterDesignDay,                        ! Day Type
  0,                                      ! Daylight Saving Time Indicator
  Dewpoint,                               ! Humidity Indicating Type
  ,                                       ! Humidity Indicating Day Schedule Name
  DefaultMultipliers,                     ! Dry-Bulb Temperature Range Modifier Type
  ,                                       ! Dry-Bulb Temperature Range Modifier Schedule Name
  ASHRAEClearSky;                         ! Solar Model Indicator

OS:ComponentData,
  {88ba210e-0340-4ab6-8b48-ba418e8c9b68}, ! Handle
  Component Data 1,                       ! Name
  {3c3bdf96-b010-4c37-8f5d-aff4f2798567}, ! UUID
  {76687544-1aeb-4a5b-a894-410300aa6105}, ! Version UUID
  1366308380,                             ! Creation Timestamp
  1366308380,                             ! Version Timestamp
  {47ddf861-64d7-4404-8584-388a504f1d8f}; ! Name of Object 1

