
OS:Version,
  {3c3aa191-92bc-42ae-9dac-88adfef3a0ac}, ! Handle
  0.9.3;                                  ! Version Identifier

OS:SizingPeriod:DesignDay,
  {b7328a99-b114-43bd-8ecf-dff464e5cb40}, ! Handle
  Sioux Falls Foss Field Ann Clg 2% Condns Enth=>MDB, ! Name
  28.9,                                   ! Maximum Dry-Bulb Temperature {C}
  11.5,                                   ! Daily Dry-Bulb Temperature Range {deltaC}
  71300,                                  ! Humidity Indicating Conditions at Maximum Dry-Bulb {BasedOnField A3}
  96230,                                  ! Barometric Pressure {Pa}
  6.5,                                    ! Wind Speed {m/s}
  180,                                    ! Wind Direction {deg}
  0,                                      ! Sky Clearness
  0,                                      ! Rain Indicator
  0,                                      ! Snow Indicator
  21,                                     ! Day of Month
  7,                                      ! Month
  SummerDesignDay,                        ! Day Type
  0,                                      ! Daylight Saving Time Indicator
  Enthalpy,                               ! Humidity Indicating Type
  ,                                       ! Humidity Indicating Day Schedule Name
  DefaultMultipliers,                     ! Dry-Bulb Temperature Range Modifier Type
  ,                                       ! Dry-Bulb Temperature Range Modifier Schedule Name
  ASHRAETau,                              ! Solar Model Indicator
  ,                                       ! Beam Solar Day Schedule Name
  ,                                       ! Diffuse Solar Day Schedule Name
  0.392,                                  ! ASHRAE Taub {dimensionless}
  2.283;                                  ! ASHRAE Taud {dimensionless}

OS:ComponentData,
  {8aa873d5-d29d-4fc3-a3dd-d25812099b0d}, ! Handle
  Component Data 1,                       ! Name
  {51c8204a-206a-4427-8acb-76faa355ab19}, ! UUID
  {105b40e6-45d8-4147-9b93-3a81a9cc837c}, ! Version UUID
  1366310461,                             ! Creation Timestamp
  1366310461,                             ! Version Timestamp
  {b7328a99-b114-43bd-8ecf-dff464e5cb40}; ! Name of Object 1

