
OS:Version,
  {4ebd45a1-4d35-4c75-be21-4cdc7007e50e}, ! Handle
  0.9.3;                                  ! Version Identifier

OS:SizingPeriod:DesignDay,
  {f38e2c72-f291-4844-ae51-4c7bc3bf8be2}, ! Handle
  New Ulm Muni  Awos Ann Clg .4% Condns WB=>MDB, ! Name
  29.7,                                   ! Maximum Dry-Bulb Temperature {C}
  10.3,                                   ! Daily Dry-Bulb Temperature Range {deltaC}
  25.6,                                   ! Humidity Indicating Conditions at Maximum Dry-Bulb {BasedOnField A3}
  97679,                                  ! Barometric Pressure {Pa}
  5.8,                                    ! Wind Speed {m/s}
  190,                                    ! Wind Direction {deg}
  0,                                      ! Sky Clearness
  0,                                      ! Rain Indicator
  0,                                      ! Snow Indicator
  21,                                     ! Day of Month
  7,                                      ! Month
  SummerDesignDay,                        ! Day Type
  0,                                      ! Daylight Saving Time Indicator
  Wetbulb,                                ! Humidity Indicating Type
  ,                                       ! Humidity Indicating Day Schedule Name
  DefaultMultipliers,                     ! Dry-Bulb Temperature Range Modifier Type
  ,                                       ! Dry-Bulb Temperature Range Modifier Schedule Name
  ASHRAETau,                              ! Solar Model Indicator
  ,                                       ! Beam Solar Day Schedule Name
  ,                                       ! Diffuse Solar Day Schedule Name
  0.405,                                  ! ASHRAE Taub {dimensionless}
  2.234;                                  ! ASHRAE Taud {dimensionless}

OS:ComponentData,
  {f7d484c4-96cf-4ee8-9bc4-683520f73909}, ! Handle
  Component Data 1,                       ! Name
  {04248431-2b6a-4da5-b57e-ea4200fb8662}, ! UUID
  {48197dbe-7b6c-49f2-956f-5bc057ba653b}, ! Version UUID
  1366308342,                             ! Creation Timestamp
  1366308342,                             ! Version Timestamp
  {f38e2c72-f291-4844-ae51-4c7bc3bf8be2}; ! Name of Object 1

