
OS:Version,
  {5db3eb9d-21fb-4c96-bc50-3e2758c5b87d}, ! Handle
  0.9.3;                                  ! Version Identifier

OS:SizingPeriod:DesignDay,
  {ccb1e404-00a0-4c77-af06-5d5dfc9d7546}, ! Handle
  Waco Ann Clg .4% Condns Enth=>MDB,      ! Name
  33.3,                                   ! Maximum Dry-Bulb Temperature {C}
  11.9,                                   ! Daily Dry-Bulb Temperature Range {deltaC}
  81100,                                  ! Humidity Indicating Conditions at Maximum Dry-Bulb {BasedOnField A3}
  99477,                                  ! Barometric Pressure {Pa}
  4.9,                                    ! Wind Speed {m/s}
  180,                                    ! Wind Direction {deg}
  0,                                      ! Sky Clearness
  0,                                      ! Rain Indicator
  0,                                      ! Snow Indicator
  21,                                     ! Day of Month
  7,                                      ! Month
  SummerDesignDay,                        ! Day Type
  0,                                      ! Daylight Saving Time Indicator
  Enthalpy,                               ! Humidity Indicating Type
  ,                                       ! Humidity Indicating Day Schedule Name
  DefaultMultipliers,                     ! Dry-Bulb Temperature Range Modifier Type
  ,                                       ! Dry-Bulb Temperature Range Modifier Schedule Name
  ASHRAETau,                              ! Solar Model Indicator
  ,                                       ! Beam Solar Day Schedule Name
  ,                                       ! Diffuse Solar Day Schedule Name
  0.46,                                   ! ASHRAE Taub {dimensionless}
  2.098;                                  ! ASHRAE Taud {dimensionless}

OS:ComponentData,
  {b4ee4fe3-ae37-4f02-a98d-86d3afec51d1}, ! Handle
  Component Data 1,                       ! Name
  {b08ff980-c6a7-432e-8aec-7f8926e6c2f4}, ! UUID
  {acb60bd9-246c-4999-8680-8ddac161a3f5}, ! Version UUID
  1366310921,                             ! Creation Timestamp
  1366310921,                             ! Version Timestamp
  {ccb1e404-00a0-4c77-af06-5d5dfc9d7546}; ! Name of Object 1

