
OS:Version,
  {c11f45c5-ea76-4e2b-996c-4efc4b6cf382}, ! Handle
  0.9.3;                                  ! Version Identifier

OS:SizingPeriod:DesignDay,
  {27a2dccf-0dda-4bdb-b1b4-bfbab60f675a}, ! Handle
  Middleton Island Aut Ann Clg 2% Condns DP=>MDB, ! Name
  13.9,                                   ! Maximum Dry-Bulb Temperature {C}
  3.4,                                    ! Daily Dry-Bulb Temperature Range {deltaC}
  11.3,                                   ! Humidity Indicating Conditions at Maximum Dry-Bulb {BasedOnField A3}
  101157,                                 ! Barometric Pressure {Pa}
  3.7,                                    ! Wind Speed {m/s}
  270,                                    ! Wind Direction {deg}
  0,                                      ! Sky Clearness
  0,                                      ! Rain Indicator
  0,                                      ! Snow Indicator
  21,                                     ! Day of Month
  8,                                      ! Month
  SummerDesignDay,                        ! Day Type
  0,                                      ! Daylight Saving Time Indicator
  Dewpoint,                               ! Humidity Indicating Type
  ,                                       ! Humidity Indicating Day Schedule Name
  DefaultMultipliers,                     ! Dry-Bulb Temperature Range Modifier Type
  ,                                       ! Dry-Bulb Temperature Range Modifier Schedule Name
  ASHRAETau,                              ! Solar Model Indicator
  ,                                       ! Beam Solar Day Schedule Name
  ,                                       ! Diffuse Solar Day Schedule Name
  0.366,                                  ! ASHRAE Taub {dimensionless}
  2.392;                                  ! ASHRAE Taud {dimensionless}

OS:ComponentData,
  {385e030b-551c-47ce-b430-8adf6dbcfe06}, ! Handle
  Component Data 1,                       ! Name
  {049534cf-f24d-4608-aac5-e92eacac6ecf}, ! UUID
  {bdb9ae48-2637-4cc6-9a9e-f3bf916ad194}, ! Version UUID
  1366305430,                             ! Creation Timestamp
  1366305430,                             ! Version Timestamp
  {27a2dccf-0dda-4bdb-b1b4-bfbab60f675a}; ! Name of Object 1

