
OS:Version,
  {d706455e-e919-4ae6-900a-8399db374240}, ! Handle
  0.9.3;                                  ! Version Identifier

OS:SizingPeriod:DesignDay,
  {4177156e-d25b-4d4a-9c83-ac3603067aa5}, ! Handle
  Napa Co  Airport Ann Hum_n 99.6% Condns DP=>MCDB, ! Name
  10,                                     ! Maximum Dry-Bulb Temperature {C}
  0,                                      ! Daily Dry-Bulb Temperature Range {deltaC}
  -6.1,                                   ! Humidity Indicating Conditions at Maximum Dry-Bulb {BasedOnField A3}
  101205,                                 ! Barometric Pressure {Pa}
  1.2,                                    ! Wind Speed {m/s}
  0,                                      ! Wind Direction {deg}
  0,                                      ! Sky Clearness
  0,                                      ! Rain Indicator
  0,                                      ! Snow Indicator
  21,                                     ! Day of Month
  1,                                      ! Month
  WinterDesignDay,                        ! Day Type
  0,                                      ! Daylight Saving Time Indicator
  Dewpoint,                               ! Humidity Indicating Type
  ,                                       ! Humidity Indicating Day Schedule Name
  DefaultMultipliers,                     ! Dry-Bulb Temperature Range Modifier Type
  ,                                       ! Dry-Bulb Temperature Range Modifier Schedule Name
  ASHRAEClearSky;                         ! Solar Model Indicator

OS:ComponentData,
  {0dd790ec-e0d9-4b76-9586-3d5945bd6f25}, ! Handle
  Component Data 1,                       ! Name
  {2ef75f51-2bb6-4dd4-aaed-22c948f00c5d}, ! UUID
  {1cff6646-7ef0-4fba-964e-23ccd1473d2e}, ! Version UUID
  1366306516,                             ! Creation Timestamp
  1366306516,                             ! Version Timestamp
  {4177156e-d25b-4d4a-9c83-ac3603067aa5}; ! Name of Object 1

