
OS:Version,
  {1f33d995-265b-42e0-b565-8b7c16ffdf53}, ! Handle
  0.9.3;                                  ! Version Identifier

OS:SizingPeriod:DesignDay,
  {20c7e4fb-27a4-4b34-a9b8-8d0d5f202b6a}, ! Handle
  Reno Ann Clg 1% Condns DB=>MWB,         ! Name
  33.9,                                   ! Maximum Dry-Bulb Temperature {C}
  18.8,                                   ! Daily Dry-Bulb Temperature Range {deltaC}
  15.9,                                   ! Humidity Indicating Conditions at Maximum Dry-Bulb {BasedOnField A3}
  86219,                                  ! Barometric Pressure {Pa}
  4.5,                                    ! Wind Speed {m/s}
  270,                                    ! Wind Direction {deg}
  0,                                      ! Sky Clearness
  0,                                      ! Rain Indicator
  0,                                      ! Snow Indicator
  21,                                     ! Day of Month
  7,                                      ! Month
  SummerDesignDay,                        ! Day Type
  0,                                      ! Daylight Saving Time Indicator
  Wetbulb,                                ! Humidity Indicating Type
  ,                                       ! Humidity Indicating Day Schedule Name
  DefaultMultipliers,                     ! Dry-Bulb Temperature Range Modifier Type
  ,                                       ! Dry-Bulb Temperature Range Modifier Schedule Name
  ASHRAETau,                              ! Solar Model Indicator
  ,                                       ! Beam Solar Day Schedule Name
  ,                                       ! Diffuse Solar Day Schedule Name
  0.398,                                  ! ASHRAE Taub {dimensionless}
  2.123;                                  ! ASHRAE Taud {dimensionless}

OS:ComponentData,
  {4acd5bff-aff4-42f0-9c5d-301b3ad242d1}, ! Handle
  Component Data 1,                       ! Name
  {ba0d8134-98cb-445b-84e6-0a4816968fd4}, ! UUID
  {7ee4e8e6-9485-499d-aaf0-944dff26762f}, ! Version UUID
  1366309531,                             ! Creation Timestamp
  1366309531,                             ! Version Timestamp
  {20c7e4fb-27a4-4b34-a9b8-8d0d5f202b6a}; ! Name of Object 1

