
OS:Version,
  {989f1308-5e7a-4455-bce1-7720a8fc6611}, ! Handle
  0.9.3;                                  ! Version Identifier

OS:SizingPeriod:DesignDay,
  {a36b5586-698f-45d8-89ee-1acb7ed22a26}, ! Handle
  PEORIA Ann Clg 2% Condns WB=>MDB,       ! Name
  29.1,                                   ! Maximum Dry-Bulb Temperature {C}
  10.6,                                   ! Daily Dry-Bulb Temperature Range {deltaC}
  24.5,                                   ! Humidity Indicating Conditions at Maximum Dry-Bulb {BasedOnField A3}
  98957,                                  ! Barometric Pressure {Pa}
  4.8,                                    ! Wind Speed {m/s}
  220,                                    ! Wind Direction {deg}
  0,                                      ! Sky Clearness
  0,                                      ! Rain Indicator
  0,                                      ! Snow Indicator
  21,                                     ! Day of Month
  7,                                      ! Month
  SummerDesignDay,                        ! Day Type
  0,                                      ! Daylight Saving Time Indicator
  Wetbulb,                                ! Humidity Indicating Type
  ,                                       ! Humidity Indicating Day Schedule Name
  DefaultMultipliers,                     ! Dry-Bulb Temperature Range Modifier Type
  ,                                       ! Dry-Bulb Temperature Range Modifier Schedule Name
  ASHRAETau,                              ! Solar Model Indicator
  ,                                       ! Beam Solar Day Schedule Name
  ,                                       ! Diffuse Solar Day Schedule Name
  0.455,                                  ! ASHRAE Taub {dimensionless}
  2.051;                                  ! ASHRAE Taud {dimensionless}

OS:ComponentData,
  {658ae1a3-99f4-4101-b05c-92b524d8570e}, ! Handle
  Component Data 1,                       ! Name
  {99a32a81-1892-4896-b46c-18f2e86dba43}, ! UUID
  {268d26d0-f00c-48ec-8379-f388cc0ee37b}, ! Version UUID
  1366307385,                             ! Creation Timestamp
  1366307385,                             ! Version Timestamp
  {a36b5586-698f-45d8-89ee-1acb7ed22a26}; ! Name of Object 1

