
OS:Version,
  {aec47e25-26c0-43c7-a1cb-47246c3f2906}, ! Handle
  0.9.3;                                  ! Version Identifier

OS:SizingPeriod:DesignDay,
  {2a75504d-a8cb-442e-9020-e70abaace6f0}, ! Handle
  Yakutat Ann Htg Wind 99% Condns WS=>MCDB, ! Name
  3,                                      ! Maximum Dry-Bulb Temperature {C}
  0,                                      ! Daily Dry-Bulb Temperature Range {deltaC}
  3,                                      ! Humidity Indicating Conditions at Maximum Dry-Bulb {BasedOnField A3}
  101217,                                 ! Barometric Pressure {Pa}
  11,                                     ! Wind Speed {m/s}
  100,                                    ! Wind Direction {deg}
  0,                                      ! Sky Clearness
  0,                                      ! Rain Indicator
  0,                                      ! Snow Indicator
  21,                                     ! Day of Month
  1,                                      ! Month
  WinterDesignDay,                        ! Day Type
  0,                                      ! Daylight Saving Time Indicator
  Wetbulb,                                ! Humidity Indicating Type
  ,                                       ! Humidity Indicating Day Schedule Name
  DefaultMultipliers,                     ! Dry-Bulb Temperature Range Modifier Type
  ,                                       ! Dry-Bulb Temperature Range Modifier Schedule Name
  ASHRAEClearSky;                         ! Solar Model Indicator

OS:ComponentData,
  {a4fb0015-fa7b-4c60-9d1c-68b1576ba12f}, ! Handle
  Component Data 1,                       ! Name
  {ef70f950-d401-4816-a886-529c72b3fc37}, ! UUID
  {5b5648c8-a970-48de-911b-110b4508ea89}, ! Version UUID
  1366305623,                             ! Creation Timestamp
  1366305623,                             ! Version Timestamp
  {2a75504d-a8cb-442e-9020-e70abaace6f0}; ! Name of Object 1

