
OS:Version,
  {34639c0e-b2a8-4ec1-89cc-8d116e647bde}, ! Handle
  0.9.3;                                  ! Version Identifier

OS:SizingPeriod:DesignDay,
  {702d1ace-f696-40ff-b9f5-e8a5500dc56f}, ! Handle
  Martinsburg Eastern Wv Reg Ap Ann Clg 1% Condns Enth=>MDB, ! Name
  29.8,                                   ! Maximum Dry-Bulb Temperature {C}
  11.6,                                   ! Daily Dry-Bulb Temperature Range {deltaC}
  73500,                                  ! Humidity Indicating Conditions at Maximum Dry-Bulb {BasedOnField A3}
  99394,                                  ! Barometric Pressure {Pa}
  4,                                      ! Wind Speed {m/s}
  270,                                    ! Wind Direction {deg}
  0,                                      ! Sky Clearness
  0,                                      ! Rain Indicator
  0,                                      ! Snow Indicator
  21,                                     ! Day of Month
  7,                                      ! Month
  SummerDesignDay,                        ! Day Type
  0,                                      ! Daylight Saving Time Indicator
  Enthalpy,                               ! Humidity Indicating Type
  ,                                       ! Humidity Indicating Day Schedule Name
  DefaultMultipliers,                     ! Dry-Bulb Temperature Range Modifier Type
  ,                                       ! Dry-Bulb Temperature Range Modifier Schedule Name
  ASHRAETau,                              ! Solar Model Indicator
  ,                                       ! Beam Solar Day Schedule Name
  ,                                       ! Diffuse Solar Day Schedule Name
  0.53,                                   ! ASHRAE Taub {dimensionless}
  1.809;                                  ! ASHRAE Taud {dimensionless}

OS:ComponentData,
  {15956ed3-fa77-4da1-b20b-431935664eed}, ! Handle
  Component Data 1,                       ! Name
  {7ae7479a-9d3c-472b-9368-361d310b0075}, ! UUID
  {81c248a9-2e1d-47b1-ba55-112bb167af2e}, ! Version UUID
  1366311667,                             ! Creation Timestamp
  1366311667,                             ! Version Timestamp
  {702d1ace-f696-40ff-b9f5-e8a5500dc56f}; ! Name of Object 1

