
OS:Version,
  {20a66bed-4ea2-4f89-a5ea-cff485af721e}, ! Handle
  0.9.3;                                  ! Version Identifier

OS:SizingPeriod:DesignDay,
  {f744fea5-9b4e-4b8e-9bb6-c8566040fc7d}, ! Handle
  Stampede Pass Ann Clg .4% Condns DP=>MDB, ! Name
  18.2,                                   ! Maximum Dry-Bulb Temperature {C}
  9,                                      ! Daily Dry-Bulb Temperature Range {deltaC}
  13.1,                                   ! Humidity Indicating Conditions at Maximum Dry-Bulb {BasedOnField A3}
  87651,                                  ! Barometric Pressure {Pa}
  3.1,                                    ! Wind Speed {m/s}
  240,                                    ! Wind Direction {deg}
  0,                                      ! Sky Clearness
  0,                                      ! Rain Indicator
  0,                                      ! Snow Indicator
  21,                                     ! Day of Month
  8,                                      ! Month
  SummerDesignDay,                        ! Day Type
  0,                                      ! Daylight Saving Time Indicator
  Dewpoint,                               ! Humidity Indicating Type
  ,                                       ! Humidity Indicating Day Schedule Name
  DefaultMultipliers,                     ! Dry-Bulb Temperature Range Modifier Type
  ,                                       ! Dry-Bulb Temperature Range Modifier Schedule Name
  ASHRAETau,                              ! Solar Model Indicator
  ,                                       ! Beam Solar Day Schedule Name
  ,                                       ! Diffuse Solar Day Schedule Name
  0.327,                                  ! ASHRAE Taub {dimensionless}
  2.585;                                  ! ASHRAE Taud {dimensionless}

OS:ComponentData,
  {2a445ca5-1c1a-4346-b90f-3612d3592d46}, ! Handle
  Component Data 1,                       ! Name
  {68a05ad2-b5e6-4f22-ae7d-e5aa4a502601}, ! UUID
  {7b22e242-3abf-44f6-ad3a-8cfb2bd26319}, ! Version UUID
  1366311401,                             ! Creation Timestamp
  1366311401,                             ! Version Timestamp
  {f744fea5-9b4e-4b8e-9bb6-c8566040fc7d}; ! Name of Object 1

