
OS:Version,
  {24c9a4c7-08a8-4a49-beb1-1cbaaabdb3be}, ! Handle
  0.9.3;                                  ! Version Identifier

OS:SizingPeriod:DesignDay,
  {20800a68-7dab-4034-9c38-43ab93319d7c}, ! Handle
  San Francisco Ann Clg 2% Condns Enth=>MDB, ! Name
  22.4,                                   ! Maximum Dry-Bulb Temperature {C}
  8.5,                                    ! Daily Dry-Bulb Temperature Range {deltaC}
  47600,                                  ! Humidity Indicating Conditions at Maximum Dry-Bulb {BasedOnField A3}
  101265,                                 ! Barometric Pressure {Pa}
  5.9,                                    ! Wind Speed {m/s}
  310,                                    ! Wind Direction {deg}
  0,                                      ! Sky Clearness
  0,                                      ! Rain Indicator
  0,                                      ! Snow Indicator
  21,                                     ! Day of Month
  8,                                      ! Month
  SummerDesignDay,                        ! Day Type
  0,                                      ! Daylight Saving Time Indicator
  Enthalpy,                               ! Humidity Indicating Type
  ,                                       ! Humidity Indicating Day Schedule Name
  DefaultMultipliers,                     ! Dry-Bulb Temperature Range Modifier Type
  ,                                       ! Dry-Bulb Temperature Range Modifier Schedule Name
  ASHRAETau,                              ! Solar Model Indicator
  ,                                       ! Beam Solar Day Schedule Name
  ,                                       ! Diffuse Solar Day Schedule Name
  0.365,                                  ! ASHRAE Taub {dimensionless}
  2.435;                                  ! ASHRAE Taud {dimensionless}

OS:ComponentData,
  {8aebdaef-0c7a-4877-a894-7316fca1fafa}, ! Handle
  Component Data 1,                       ! Name
  {9ad6a786-f58b-4d16-a199-0961b430290a}, ! UUID
  {03e5a076-a7cb-4a7b-9ee6-fa62e5219a26}, ! Version UUID
  1366306593,                             ! Creation Timestamp
  1366306593,                             ! Version Timestamp
  {20800a68-7dab-4034-9c38-43ab93319d7c}; ! Name of Object 1

