
OS:Version,
  {7d881a27-773a-4952-9da5-fb6309ce3a5b}, ! Handle
  0.9.3;                                  ! Version Identifier

OS:SizingPeriod:DesignDay,
  {3efee32a-0058-4e6b-882b-4aec15dac1c3}, ! Handle
  Parkersburg Wood County Ap Ann Htg Wind 99.6% Condns WS=>MCDB, ! Name
  3.3,                                    ! Maximum Dry-Bulb Temperature {C}
  0,                                      ! Daily Dry-Bulb Temperature Range {deltaC}
  3.3,                                    ! Humidity Indicating Conditions at Maximum Dry-Bulb {BasedOnField A3}
  98322,                                  ! Barometric Pressure {Pa}
  9.9,                                    ! Wind Speed {m/s}
  240,                                    ! Wind Direction {deg}
  0,                                      ! Sky Clearness
  0,                                      ! Rain Indicator
  0,                                      ! Snow Indicator
  21,                                     ! Day of Month
  1,                                      ! Month
  WinterDesignDay,                        ! Day Type
  0,                                      ! Daylight Saving Time Indicator
  Wetbulb,                                ! Humidity Indicating Type
  ,                                       ! Humidity Indicating Day Schedule Name
  DefaultMultipliers,                     ! Dry-Bulb Temperature Range Modifier Type
  ,                                       ! Dry-Bulb Temperature Range Modifier Schedule Name
  ASHRAEClearSky;                         ! Solar Model Indicator

OS:ComponentData,
  {90ebdd81-5488-431d-ba91-16440f653635}, ! Handle
  Component Data 1,                       ! Name
  {a972b0de-4438-4014-a13a-72751c2331d4}, ! UUID
  {e4e9ce72-af57-453c-94be-c32276dc87c9}, ! Version UUID
  1366311675,                             ! Creation Timestamp
  1366311675,                             ! Version Timestamp
  {3efee32a-0058-4e6b-882b-4aec15dac1c3}; ! Name of Object 1

