
OS:Version,
  {6bb61808-45c4-4d6d-a8d4-d1fad466c3ed}, ! Handle
  0.9.3;                                  ! Version Identifier

OS:SizingPeriod:DesignDay,
  {7de13db2-55ad-4546-bc69-157d169d626c}, ! Handle
  St Louis Spirit Of St Louis A Ann Htg Wind 99% Condns WS=>MCDB, ! Name
  4.9,                                    ! Maximum Dry-Bulb Temperature {C}
  0,                                      ! Daily Dry-Bulb Temperature Range {deltaC}
  4.9,                                    ! Humidity Indicating Conditions at Maximum Dry-Bulb {BasedOnField A3}
  99643,                                  ! Barometric Pressure {Pa}
  9.3,                                    ! Wind Speed {m/s}
  290,                                    ! Wind Direction {deg}
  0,                                      ! Sky Clearness
  0,                                      ! Rain Indicator
  0,                                      ! Snow Indicator
  21,                                     ! Day of Month
  1,                                      ! Month
  WinterDesignDay,                        ! Day Type
  0,                                      ! Daylight Saving Time Indicator
  Wetbulb,                                ! Humidity Indicating Type
  ,                                       ! Humidity Indicating Day Schedule Name
  DefaultMultipliers,                     ! Dry-Bulb Temperature Range Modifier Type
  ,                                       ! Dry-Bulb Temperature Range Modifier Schedule Name
  ASHRAEClearSky;                         ! Solar Model Indicator

OS:ComponentData,
  {ee0afbe7-0b75-4db2-9701-a10476775b25}, ! Handle
  Component Data 1,                       ! Name
  {e90e3f11-e8d1-4bb4-83d9-a0a2b273dbaa}, ! UUID
  {51c49a13-43f8-43b1-8b20-03be77b88406}, ! Version UUID
  1366308589,                             ! Creation Timestamp
  1366308589,                             ! Version Timestamp
  {7de13db2-55ad-4546-bc69-157d169d626c}; ! Name of Object 1

