
OS:Version,
  {cf36e8bf-e408-4d41-bedb-76d19e70c411}, ! Handle
  0.9.3;                                  ! Version Identifier

OS:SizingPeriod:DesignDay,
  {93844cfd-7026-44e1-a4f4-fa8f7db551f4}, ! Handle
  Myrtle Beach Afb Ann Clg .4% Condns WB=>MDB, ! Name
  31.4,                                   ! Maximum Dry-Bulb Temperature {C}
  7.8,                                    ! Daily Dry-Bulb Temperature Range {deltaC}
  27.5,                                   ! Humidity Indicating Conditions at Maximum Dry-Bulb {BasedOnField A3}
  101229,                                 ! Barometric Pressure {Pa}
  3.6,                                    ! Wind Speed {m/s}
  180,                                    ! Wind Direction {deg}
  0,                                      ! Sky Clearness
  0,                                      ! Rain Indicator
  0,                                      ! Snow Indicator
  21,                                     ! Day of Month
  7,                                      ! Month
  SummerDesignDay,                        ! Day Type
  0,                                      ! Daylight Saving Time Indicator
  Wetbulb,                                ! Humidity Indicating Type
  ,                                       ! Humidity Indicating Day Schedule Name
  DefaultMultipliers,                     ! Dry-Bulb Temperature Range Modifier Type
  ,                                       ! Dry-Bulb Temperature Range Modifier Schedule Name
  ASHRAETau,                              ! Solar Model Indicator
  ,                                       ! Beam Solar Day Schedule Name
  ,                                       ! Diffuse Solar Day Schedule Name
  0.573,                                  ! ASHRAE Taub {dimensionless}
  1.77;                                   ! ASHRAE Taud {dimensionless}

OS:ComponentData,
  {ec3f1140-d6af-42e5-b4ad-649007fe723b}, ! Handle
  Component Data 1,                       ! Name
  {7f211ffc-933b-4b62-b5e6-43ae7f4723da}, ! UUID
  {381a1ad1-7923-475f-8847-e3c786b86bdb}, ! Version UUID
  1366310373,                             ! Creation Timestamp
  1366310373,                             ! Version Timestamp
  {93844cfd-7026-44e1-a4f4-fa8f7db551f4}; ! Name of Object 1

