
OS:Version,
  {19030a01-d614-4a09-964e-d946f3dccdb2}, ! Handle
  0.9.3;                                  ! Version Identifier

OS:SizingPeriod:DesignDay,
  {4b1e7548-7fd9-4b4b-b3d9-4753f1d28a9f}, ! Handle
  Prescott Love Field Ann Clg .4% Condns Enth=>MDB, ! Name
  27.1,                                   ! Maximum Dry-Bulb Temperature {C}
  14.5,                                   ! Daily Dry-Bulb Temperature Range {deltaC}
  62400,                                  ! Humidity Indicating Conditions at Maximum Dry-Bulb {BasedOnField A3}
  84173,                                  ! Barometric Pressure {Pa}
  4.8,                                    ! Wind Speed {m/s}
  240,                                    ! Wind Direction {deg}
  0,                                      ! Sky Clearness
  0,                                      ! Rain Indicator
  0,                                      ! Snow Indicator
  21,                                     ! Day of Month
  7,                                      ! Month
  SummerDesignDay,                        ! Day Type
  0,                                      ! Daylight Saving Time Indicator
  Enthalpy,                               ! Humidity Indicating Type
  ,                                       ! Humidity Indicating Day Schedule Name
  DefaultMultipliers,                     ! Dry-Bulb Temperature Range Modifier Type
  ,                                       ! Dry-Bulb Temperature Range Modifier Schedule Name
  ASHRAETau,                              ! Solar Model Indicator
  ,                                       ! Beam Solar Day Schedule Name
  ,                                       ! Diffuse Solar Day Schedule Name
  0.445,                                  ! ASHRAE Taub {dimensionless}
  1.967;                                  ! ASHRAE Taud {dimensionless}

OS:ComponentData,
  {d39677e2-d971-46e8-8b46-5924d3bd23a9}, ! Handle
  Component Data 1,                       ! Name
  {7dca6cbc-0448-48f4-928e-24eaf907e988}, ! UUID
  {0126ba09-def1-4154-910f-bfca1fc90bf6}, ! Version UUID
  1366306305,                             ! Creation Timestamp
  1366306305,                             ! Version Timestamp
  {4b1e7548-7fd9-4b4b-b3d9-4753f1d28a9f}; ! Name of Object 1

