
OS:Version,
  {3b6cbb33-5332-4924-b3df-990f74d3bec8}, ! Handle
  0.9.3;                                  ! Version Identifier

OS:SizingPeriod:DesignDay,
  {2ebf379e-4fc3-416f-b5fb-3cc2929430f0}, ! Handle
  Reno Tahoe International Ap Ann Hum_n 99% Condns DP=>MCDB, ! Name
  0.6,                                    ! Maximum Dry-Bulb Temperature {C}
  0,                                      ! Daily Dry-Bulb Temperature Range {deltaC}
  -13.8,                                  ! Humidity Indicating Conditions at Maximum Dry-Bulb {BasedOnField A3}
  86208,                                  ! Barometric Pressure {Pa}
  1.2,                                    ! Wind Speed {m/s}
  180,                                    ! Wind Direction {deg}
  0,                                      ! Sky Clearness
  0,                                      ! Rain Indicator
  0,                                      ! Snow Indicator
  21,                                     ! Day of Month
  1,                                      ! Month
  WinterDesignDay,                        ! Day Type
  0,                                      ! Daylight Saving Time Indicator
  Dewpoint,                               ! Humidity Indicating Type
  ,                                       ! Humidity Indicating Day Schedule Name
  DefaultMultipliers,                     ! Dry-Bulb Temperature Range Modifier Type
  ,                                       ! Dry-Bulb Temperature Range Modifier Schedule Name
  ASHRAEClearSky;                         ! Solar Model Indicator

OS:ComponentData,
  {b00f1098-83d8-49c7-adab-d9e0d57a2d29}, ! Handle
  Component Data 1,                       ! Name
  {f023d671-1cdd-44f6-aec0-86e60fe0eafe}, ! UUID
  {2640310f-f855-4e4a-a962-2ebc5cd24907}, ! Version UUID
  1366309535,                             ! Creation Timestamp
  1366309535,                             ! Version Timestamp
  {2ebf379e-4fc3-416f-b5fb-3cc2929430f0}; ! Name of Object 1

