
OS:Version,
  {85ee20a2-f575-454e-91b0-c436b844cca2}, ! Handle
  0.9.3;                                  ! Version Identifier

OS:SizingPeriod:DesignDay,
  {4781aff8-5c2b-4bee-9d03-47c290fff266}, ! Handle
  Olympia Ann Htg 99% Condns DB,          ! Name
  -4.4,                                   ! Maximum Dry-Bulb Temperature {C}
  0,                                      ! Daily Dry-Bulb Temperature Range {deltaC}
  -4.4,                                   ! Humidity Indicating Conditions at Maximum Dry-Bulb {BasedOnField A3}
  100594,                                 ! Barometric Pressure {Pa}
  1.6,                                    ! Wind Speed {m/s}
  40,                                     ! Wind Direction {deg}
  0,                                      ! Sky Clearness
  0,                                      ! Rain Indicator
  0,                                      ! Snow Indicator
  21,                                     ! Day of Month
  12,                                     ! Month
  WinterDesignDay,                        ! Day Type
  0,                                      ! Daylight Saving Time Indicator
  Wetbulb,                                ! Humidity Indicating Type
  ,                                       ! Humidity Indicating Day Schedule Name
  DefaultMultipliers,                     ! Dry-Bulb Temperature Range Modifier Type
  ,                                       ! Dry-Bulb Temperature Range Modifier Schedule Name
  ASHRAEClearSky;                         ! Solar Model Indicator

OS:ComponentData,
  {e64af6a5-2a20-4eea-9ad1-01670411135b}, ! Handle
  Component Data 1,                       ! Name
  {93d85e96-f8fe-4d86-ba68-99f42fa60c77}, ! UUID
  {bc7f9fa2-3ae4-4491-82ce-f80b5227feef}, ! Version UUID
  1366311308,                             ! Creation Timestamp
  1366311308,                             ! Version Timestamp
  {4781aff8-5c2b-4bee-9d03-47c290fff266}; ! Name of Object 1

