
OS:Version,
  {29edcdb1-dd7d-43b2-8522-f342a2470ff2}, ! Handle
  0.9.3;                                  ! Version Identifier

OS:SizingPeriod:DesignDay,
  {1c18c90c-71e4-41b6-8126-add61abf3d5b}, ! Handle
  Randolph Afb Ann Clg 2% Condns DB=>MWB, ! Name
  35.2,                                   ! Maximum Dry-Bulb Temperature {C}
  12.5,                                   ! Daily Dry-Bulb Temperature Range {deltaC}
  23.4,                                   ! Humidity Indicating Conditions at Maximum Dry-Bulb {BasedOnField A3}
  98569,                                  ! Barometric Pressure {Pa}
  4.7,                                    ! Wind Speed {m/s}
  160,                                    ! Wind Direction {deg}
  0,                                      ! Sky Clearness
  0,                                      ! Rain Indicator
  0,                                      ! Snow Indicator
  21,                                     ! Day of Month
  8,                                      ! Month
  SummerDesignDay,                        ! Day Type
  0,                                      ! Daylight Saving Time Indicator
  Wetbulb,                                ! Humidity Indicating Type
  ,                                       ! Humidity Indicating Day Schedule Name
  DefaultMultipliers,                     ! Dry-Bulb Temperature Range Modifier Type
  ,                                       ! Dry-Bulb Temperature Range Modifier Schedule Name
  ASHRAETau,                              ! Solar Model Indicator
  ,                                       ! Beam Solar Day Schedule Name
  ,                                       ! Diffuse Solar Day Schedule Name
  0.45,                                   ! ASHRAE Taub {dimensionless}
  2.14;                                   ! ASHRAE Taud {dimensionless}

OS:ComponentData,
  {ecc7553c-3027-4629-a129-c58b11b6dd1a}, ! Handle
  Component Data 1,                       ! Name
  {f5e10d5a-0cce-48ac-9ed1-754b774beef1}, ! UUID
  {236c0aaa-b35e-433d-8976-78fb5bf77584}, ! Version UUID
  1366310860,                             ! Creation Timestamp
  1366310860,                             ! Version Timestamp
  {1c18c90c-71e4-41b6-8126-add61abf3d5b}; ! Name of Object 1

