
OS:Version,
  {8dbb176c-6a09-484a-ab29-dbeff7715926}, ! Handle
  0.9.3;                                  ! Version Identifier

OS:SizingPeriod:DesignDay,
  {ba7df624-fb4a-4f79-a87f-6ddb62b6736f}, ! Handle
  Marshall Ryan Awos Ann Clg .4% Condns Enth=>MDB, ! Name
  30.4,                                   ! Maximum Dry-Bulb Temperature {C}
  10.2,                                   ! Daily Dry-Bulb Temperature Range {deltaC}
  76300,                                  ! Humidity Indicating Conditions at Maximum Dry-Bulb {BasedOnField A3}
  97086,                                  ! Barometric Pressure {Pa}
  7.2,                                    ! Wind Speed {m/s}
  200,                                    ! Wind Direction {deg}
  0,                                      ! Sky Clearness
  0,                                      ! Rain Indicator
  0,                                      ! Snow Indicator
  21,                                     ! Day of Month
  7,                                      ! Month
  SummerDesignDay,                        ! Day Type
  0,                                      ! Daylight Saving Time Indicator
  Enthalpy,                               ! Humidity Indicating Type
  ,                                       ! Humidity Indicating Day Schedule Name
  DefaultMultipliers,                     ! Dry-Bulb Temperature Range Modifier Type
  ,                                       ! Dry-Bulb Temperature Range Modifier Schedule Name
  ASHRAETau,                              ! Solar Model Indicator
  ,                                       ! Beam Solar Day Schedule Name
  ,                                       ! Diffuse Solar Day Schedule Name
  0.398,                                  ! ASHRAE Taub {dimensionless}
  2.26;                                   ! ASHRAE Taud {dimensionless}

OS:ComponentData,
  {f1581e3d-fba5-48d5-9d99-c1f7ced0fb10}, ! Handle
  Component Data 1,                       ! Name
  {a6d2240a-bc9b-470d-8fd4-66815447e73d}, ! UUID
  {e75738d2-95a7-4270-b7fa-5d267910eab0}, ! Version UUID
  1366308301,                             ! Creation Timestamp
  1366308301,                             ! Version Timestamp
  {ba7df624-fb4a-4f79-a87f-6ddb62b6736f}; ! Name of Object 1

