
OS:Version,
  {d4f7ed0e-6e7c-4143-900f-d577bf0d632c}, ! Handle
  0.9.3;                                  ! Version Identifier

OS:SizingPeriod:DesignDay,
  {11b510ab-b110-4e02-80e4-befa9ab38b11}, ! Handle
  Montague Siskiyou County Ap Ann Clg .4% Condns DB=>MWB, ! Name
  36,                                     ! Maximum Dry-Bulb Temperature {C}
  19.4,                                   ! Daily Dry-Bulb Temperature Range {deltaC}
  18,                                     ! Humidity Indicating Conditions at Maximum Dry-Bulb {BasedOnField A3}
  92043,                                  ! Barometric Pressure {Pa}
  3.2,                                    ! Wind Speed {m/s}
  190,                                    ! Wind Direction {deg}
  0,                                      ! Sky Clearness
  0,                                      ! Rain Indicator
  0,                                      ! Snow Indicator
  21,                                     ! Day of Month
  7,                                      ! Month
  SummerDesignDay,                        ! Day Type
  0,                                      ! Daylight Saving Time Indicator
  Wetbulb,                                ! Humidity Indicating Type
  ,                                       ! Humidity Indicating Day Schedule Name
  DefaultMultipliers,                     ! Dry-Bulb Temperature Range Modifier Type
  ,                                       ! Dry-Bulb Temperature Range Modifier Schedule Name
  ASHRAETau,                              ! Solar Model Indicator
  ,                                       ! Beam Solar Day Schedule Name
  ,                                       ! Diffuse Solar Day Schedule Name
  0.349,                                  ! ASHRAE Taub {dimensionless}
  2.55;                                   ! ASHRAE Taud {dimensionless}

OS:ComponentData,
  {3c95ee51-02cf-4fe6-a77d-7abd96b20a56}, ! Handle
  Component Data 1,                       ! Name
  {2898c3ba-19a5-4606-b6b2-63c90efc4fbc}, ! UUID
  {7665179a-015e-41bb-8a76-54e81c68eabd}, ! Version UUID
  1366306493,                             ! Creation Timestamp
  1366306493,                             ! Version Timestamp
  {11b510ab-b110-4e02-80e4-befa9ab38b11}; ! Name of Object 1

