
OS:Version,
  {4b553584-7848-47ce-8716-4159bd4a0b88}, ! Handle
  0.9.3;                                  ! Version Identifier

OS:SizingPeriod:DesignDay,
  {be164d46-7598-4bbe-850f-a2172cb279e5}, ! Handle
  Seattle-Tacoma/Int'l A Ann Hum_n 99% Condns DP=>MCDB, ! Name
  1.4,                                    ! Maximum Dry-Bulb Temperature {C}
  0,                                      ! Daily Dry-Bulb Temperature Range {deltaC}
  -9.4,                                   ! Humidity Indicating Conditions at Maximum Dry-Bulb {BasedOnField A3}
  99690,                                  ! Barometric Pressure {Pa}
  4.3,                                    ! Wind Speed {m/s}
  20,                                     ! Wind Direction {deg}
  0,                                      ! Sky Clearness
  0,                                      ! Rain Indicator
  0,                                      ! Snow Indicator
  21,                                     ! Day of Month
  12,                                     ! Month
  WinterDesignDay,                        ! Day Type
  0,                                      ! Daylight Saving Time Indicator
  Dewpoint,                               ! Humidity Indicating Type
  ,                                       ! Humidity Indicating Day Schedule Name
  DefaultMultipliers,                     ! Dry-Bulb Temperature Range Modifier Type
  ,                                       ! Dry-Bulb Temperature Range Modifier Schedule Name
  ASHRAEClearSky;                         ! Solar Model Indicator

OS:ComponentData,
  {e6427812-084d-4fae-8a27-6957de4a60cd}, ! Handle
  Component Data 1,                       ! Name
  {f0c0959f-726c-466b-a46e-b9b695f1259d}, ! UUID
  {2e901a11-ee2b-4a71-84cb-35f05aee58fe}, ! Version UUID
  1366311358,                             ! Creation Timestamp
  1366311358,                             ! Version Timestamp
  {be164d46-7598-4bbe-850f-a2172cb279e5}; ! Name of Object 1

