
OS:Version,
  {3b1012b3-6856-42fc-99db-a5e96ddb2035}, ! Handle
  0.9.3;                                  ! Version Identifier

OS:SizingPeriod:DesignDay,
  {2c2c6b64-88a8-47ff-bea9-cdc22fedac37}, ! Handle
  St Cloud Regional Arpt Ann Htg 99% Condns DB, ! Name
  -24.9,                                  ! Maximum Dry-Bulb Temperature {C}
  0,                                      ! Daily Dry-Bulb Temperature Range {deltaC}
  -24.9,                                  ! Humidity Indicating Conditions at Maximum Dry-Bulb {BasedOnField A3}
  97644,                                  ! Barometric Pressure {Pa}
  2.6,                                    ! Wind Speed {m/s}
  310,                                    ! Wind Direction {deg}
  0,                                      ! Sky Clearness
  0,                                      ! Rain Indicator
  0,                                      ! Snow Indicator
  21,                                     ! Day of Month
  1,                                      ! Month
  WinterDesignDay,                        ! Day Type
  0,                                      ! Daylight Saving Time Indicator
  Wetbulb,                                ! Humidity Indicating Type
  ,                                       ! Humidity Indicating Day Schedule Name
  DefaultMultipliers,                     ! Dry-Bulb Temperature Range Modifier Type
  ,                                       ! Dry-Bulb Temperature Range Modifier Schedule Name
  ASHRAEClearSky;                         ! Solar Model Indicator

OS:ComponentData,
  {b70961df-9318-408d-abd1-d0a074287794}, ! Handle
  Component Data 1,                       ! Name
  {7a61c0df-8d1c-4ce8-9d61-1fb2ab0b5470}, ! UUID
  {8b4947cc-3763-42af-8d32-8da5ef917a29}, ! Version UUID
  1366308427,                             ! Creation Timestamp
  1366308427,                             ! Version Timestamp
  {2c2c6b64-88a8-47ff-bea9-cdc22fedac37}; ! Name of Object 1

