
OS:Version,
  {c388a645-83b4-416e-933f-ac8c2bb629c0}, ! Handle
  0.9.3;                                  ! Version Identifier

OS:SizingPeriod:DesignDay,
  {d5704f06-1d9e-4f02-bca4-1370942fa05a}, ! Handle
  Youngstown Ann Htg Wind 99% Condns WS=>MCDB, ! Name
  -5.3,                                   ! Maximum Dry-Bulb Temperature {C}
  0,                                      ! Daily Dry-Bulb Temperature Range {deltaC}
  -5.3,                                   ! Humidity Indicating Conditions at Maximum Dry-Bulb {BasedOnField A3}
  97063,                                  ! Barometric Pressure {Pa}
  10.9,                                   ! Wind Speed {m/s}
  260,                                    ! Wind Direction {deg}
  0,                                      ! Sky Clearness
  0,                                      ! Rain Indicator
  0,                                      ! Snow Indicator
  21,                                     ! Day of Month
  1,                                      ! Month
  WinterDesignDay,                        ! Day Type
  0,                                      ! Daylight Saving Time Indicator
  Wetbulb,                                ! Humidity Indicating Type
  ,                                       ! Humidity Indicating Day Schedule Name
  DefaultMultipliers,                     ! Dry-Bulb Temperature Range Modifier Type
  ,                                       ! Dry-Bulb Temperature Range Modifier Schedule Name
  ASHRAEClearSky;                         ! Solar Model Indicator

OS:ComponentData,
  {58b2f87f-d04a-4baa-8a21-75121e8f4ea0}, ! Handle
  Component Data 1,                       ! Name
  {692d20a6-2691-4df0-a4bb-50c448ccd038}, ! UUID
  {6c2703ab-c2d3-44a2-83f0-b78eb2159ddf}, ! Version UUID
  1366309864,                             ! Creation Timestamp
  1366309864,                             ! Version Timestamp
  {d5704f06-1d9e-4f02-bca4-1370942fa05a}; ! Name of Object 1

