
OS:Version,
  {b79ad1a3-d656-421f-a50d-7b3788c4d6b0}, ! Handle
  0.9.3;                                  ! Version Identifier

OS:SizingPeriod:DesignDay,
  {ce0ba82c-1355-4e19-a5d2-30abc30fdf6a}, ! Handle
  Pawtucket  Awos Ann Htg 99.6% Condns DB, ! Name
  -16,                                    ! Maximum Dry-Bulb Temperature {C}
  0,                                      ! Daily Dry-Bulb Temperature Range {deltaC}
  -16,                                    ! Humidity Indicating Conditions at Maximum Dry-Bulb {BasedOnField A3}
  99726,                                  ! Barometric Pressure {Pa}
  3.9,                                    ! Wind Speed {m/s}
  300,                                    ! Wind Direction {deg}
  0,                                      ! Sky Clearness
  0,                                      ! Rain Indicator
  0,                                      ! Snow Indicator
  21,                                     ! Day of Month
  1,                                      ! Month
  WinterDesignDay,                        ! Day Type
  0,                                      ! Daylight Saving Time Indicator
  Wetbulb,                                ! Humidity Indicating Type
  ,                                       ! Humidity Indicating Day Schedule Name
  DefaultMultipliers,                     ! Dry-Bulb Temperature Range Modifier Type
  ,                                       ! Dry-Bulb Temperature Range Modifier Schedule Name
  ASHRAEClearSky;                         ! Solar Model Indicator

OS:ComponentData,
  {c3ac8065-09df-4f6c-9ec0-4b8a29726a57}, ! Handle
  Component Data 1,                       ! Name
  {30180e39-beb3-4a73-9e31-d8279c22d5d2}, ! UUID
  {1ff3a77d-2c53-4d48-8742-12967fcc07aa}, ! Version UUID
  1366310292,                             ! Creation Timestamp
  1366310292,                             ! Version Timestamp
  {ce0ba82c-1355-4e19-a5d2-30abc30fdf6a}; ! Name of Object 1

