
OS:Version,
  {47a3c597-acbf-4a7d-b135-7ecd24a467fd}, ! Handle
  0.9.3;                                  ! Version Identifier

OS:SizingPeriod:DesignDay,
  {e25a46a1-2197-432a-885d-4861b83a33df}, ! Handle
  Orlando Intl Arpt Ann Clg 2% Condns DP=>MDB, ! Name
  27.2,                                   ! Maximum Dry-Bulb Temperature {C}
  9.4,                                    ! Daily Dry-Bulb Temperature Range {deltaC}
  24.6,                                   ! Humidity Indicating Conditions at Maximum Dry-Bulb {BasedOnField A3}
  100977,                                 ! Barometric Pressure {Pa}
  3.7,                                    ! Wind Speed {m/s}
  290,                                    ! Wind Direction {deg}
  0,                                      ! Sky Clearness
  0,                                      ! Rain Indicator
  0,                                      ! Snow Indicator
  21,                                     ! Day of Month
  7,                                      ! Month
  SummerDesignDay,                        ! Day Type
  0,                                      ! Daylight Saving Time Indicator
  Dewpoint,                               ! Humidity Indicating Type
  ,                                       ! Humidity Indicating Day Schedule Name
  DefaultMultipliers,                     ! Dry-Bulb Temperature Range Modifier Type
  ,                                       ! Dry-Bulb Temperature Range Modifier Schedule Name
  ASHRAETau,                              ! Solar Model Indicator
  ,                                       ! Beam Solar Day Schedule Name
  ,                                       ! Diffuse Solar Day Schedule Name
  0.514,                                  ! ASHRAE Taub {dimensionless}
  1.928;                                  ! ASHRAE Taud {dimensionless}

OS:ComponentData,
  {187a050c-81b0-4ae9-91f2-1c6606ee15b6}, ! Handle
  Component Data 1,                       ! Name
  {252a7200-f468-427e-8215-0a956b4f0df1}, ! UUID
  {191c7929-6fdb-4d5c-92f1-136ebac52d6a}, ! Version UUID
  1366306896,                             ! Creation Timestamp
  1366306896,                             ! Version Timestamp
  {e25a46a1-2197-432a-885d-4861b83a33df}; ! Name of Object 1

