
OS:Version,
  {7781a61f-5696-40d4-87a1-f9c428b30580}, ! Handle
  0.9.3;                                  ! Version Identifier

OS:SizingPeriod:DesignDay,
  {d9ce5d70-4776-435e-ba1b-504ea6edd2da}, ! Handle
  Red Wing Ann Clg 1% Condns WB=>MDB,     ! Name
  28.6,                                   ! Maximum Dry-Bulb Temperature {C}
  11.2,                                   ! Daily Dry-Bulb Temperature Range {deltaC}
  24.2,                                   ! Humidity Indicating Conditions at Maximum Dry-Bulb {BasedOnField A3}
  98487,                                  ! Barometric Pressure {Pa}
  4.4,                                    ! Wind Speed {m/s}
  190,                                    ! Wind Direction {deg}
  0,                                      ! Sky Clearness
  0,                                      ! Rain Indicator
  0,                                      ! Snow Indicator
  21,                                     ! Day of Month
  7,                                      ! Month
  SummerDesignDay,                        ! Day Type
  0,                                      ! Daylight Saving Time Indicator
  Wetbulb,                                ! Humidity Indicating Type
  ,                                       ! Humidity Indicating Day Schedule Name
  DefaultMultipliers,                     ! Dry-Bulb Temperature Range Modifier Type
  ,                                       ! Dry-Bulb Temperature Range Modifier Schedule Name
  ASHRAETau,                              ! Solar Model Indicator
  ,                                       ! Beam Solar Day Schedule Name
  ,                                       ! Diffuse Solar Day Schedule Name
  0.413,                                  ! ASHRAE Taub {dimensionless}
  2.205;                                  ! ASHRAE Taud {dimensionless}

OS:ComponentData,
  {3b1b84b3-1933-4932-a246-38303296508a}, ! Handle
  Component Data 1,                       ! Name
  {5c49f1a7-b66c-4340-b5ef-2f8674155881}, ! UUID
  {0359eddf-1950-4bca-9bf8-df91b4d1edd2}, ! Version UUID
  1366308375,                             ! Creation Timestamp
  1366308375,                             ! Version Timestamp
  {d9ce5d70-4776-435e-ba1b-504ea6edd2da}; ! Name of Object 1

