
OS:Version,
  {38a46baf-3290-4cb2-97ee-3268e4f47659}, ! Handle
  0.9.3;                                  ! Version Identifier

OS:SizingPeriod:DesignDay,
  {c7779d77-acca-46d4-a8eb-237e6bda34e5}, ! Handle
  Youngstown Regional Airport Ann Clg 2% Condns DP=>MDB, ! Name
  24.7,                                   ! Maximum Dry-Bulb Temperature {C}
  11.5,                                   ! Daily Dry-Bulb Temperature Range {deltaC}
  20.8,                                   ! Humidity Indicating Conditions at Maximum Dry-Bulb {BasedOnField A3}
  97074,                                  ! Barometric Pressure {Pa}
  4.3,                                    ! Wind Speed {m/s}
  230,                                    ! Wind Direction {deg}
  0,                                      ! Sky Clearness
  0,                                      ! Rain Indicator
  0,                                      ! Snow Indicator
  21,                                     ! Day of Month
  7,                                      ! Month
  SummerDesignDay,                        ! Day Type
  0,                                      ! Daylight Saving Time Indicator
  Dewpoint,                               ! Humidity Indicating Type
  ,                                       ! Humidity Indicating Day Schedule Name
  DefaultMultipliers,                     ! Dry-Bulb Temperature Range Modifier Type
  ,                                       ! Dry-Bulb Temperature Range Modifier Schedule Name
  ASHRAETau,                              ! Solar Model Indicator
  ,                                       ! Beam Solar Day Schedule Name
  ,                                       ! Diffuse Solar Day Schedule Name
  0.456,                                  ! ASHRAE Taub {dimensionless}
  2.022;                                  ! ASHRAE Taud {dimensionless}

OS:ComponentData,
  {79100ce9-67b5-4ef7-8ca8-5c36fd707426}, ! Handle
  Component Data 1,                       ! Name
  {4de80f36-a055-4143-879a-b2bdbd57b4a9}, ! UUID
  {6c545fea-e14d-4883-bb05-4dd81ecd230b}, ! Version UUID
  1366309870,                             ! Creation Timestamp
  1366309870,                             ! Version Timestamp
  {c7779d77-acca-46d4-a8eb-237e6bda34e5}; ! Name of Object 1

