
OS:Version,
  {0f989c54-197e-44c5-a5bc-a41ea91edf9d}, ! Handle
  0.9.3;                                  ! Version Identifier

OS:SizingPeriod:DesignDay,
  {9ebf96ca-d582-488b-8479-55c65a470e29}, ! Handle
  WORCESTER Ann Htg Wind 99.6% Condns WS=>MCDB, ! Name
  -7.2,                                   ! Maximum Dry-Bulb Temperature {C}
  0,                                      ! Daily Dry-Bulb Temperature Range {deltaC}
  -7.2,                                   ! Humidity Indicating Conditions at Maximum Dry-Bulb {BasedOnField A3}
  97761,                                  ! Barometric Pressure {Pa}
  13.6,                                   ! Wind Speed {m/s}
  280,                                    ! Wind Direction {deg}
  0,                                      ! Sky Clearness
  0,                                      ! Rain Indicator
  0,                                      ! Snow Indicator
  21,                                     ! Day of Month
  1,                                      ! Month
  WinterDesignDay,                        ! Day Type
  0,                                      ! Daylight Saving Time Indicator
  Wetbulb,                                ! Humidity Indicating Type
  ,                                       ! Humidity Indicating Day Schedule Name
  DefaultMultipliers,                     ! Dry-Bulb Temperature Range Modifier Type
  ,                                       ! Dry-Bulb Temperature Range Modifier Schedule Name
  ASHRAEClearSky;                         ! Solar Model Indicator

OS:ComponentData,
  {a24c812b-a12f-4f3e-bfb8-3789c2bedbdd}, ! Handle
  Component Data 1,                       ! Name
  {0455fbf5-505b-47ab-b843-81d52bebd481}, ! UUID
  {b5087f3c-57bb-4325-b821-4581d76b8d79}, ! Version UUID
  1366307826,                             ! Creation Timestamp
  1366307826,                             ! Version Timestamp
  {9ebf96ca-d582-488b-8479-55c65a470e29}; ! Name of Object 1

