
OS:Version,
  {8fe02bdb-45ad-4de7-b546-f04f6d2f1317}, ! Handle
  0.9.3;                                  ! Version Identifier

OS:SizingPeriod:DesignDay,
  {4b515997-1efb-476b-baf8-8f1366cd4771}, ! Handle
  Phillips Price Co Ann Hum_n 99% Condns DP=>MCDB, ! Name
  -24.5,                                  ! Maximum Dry-Bulb Temperature {C}
  0,                                      ! Daily Dry-Bulb Temperature Range {deltaC}
  -29.9,                                  ! Humidity Indicating Conditions at Maximum Dry-Bulb {BasedOnField A3}
  96046,                                  ! Barometric Pressure {Pa}
  0.8,                                    ! Wind Speed {m/s}
  280,                                    ! Wind Direction {deg}
  0,                                      ! Sky Clearness
  0,                                      ! Rain Indicator
  0,                                      ! Snow Indicator
  21,                                     ! Day of Month
  1,                                      ! Month
  WinterDesignDay,                        ! Day Type
  0,                                      ! Daylight Saving Time Indicator
  Dewpoint,                               ! Humidity Indicating Type
  ,                                       ! Humidity Indicating Day Schedule Name
  DefaultMultipliers,                     ! Dry-Bulb Temperature Range Modifier Type
  ,                                       ! Dry-Bulb Temperature Range Modifier Schedule Name
  ASHRAEClearSky;                         ! Solar Model Indicator

OS:ComponentData,
  {a9a8729a-c32f-4879-9266-221a1796c206}, ! Handle
  Component Data 1,                       ! Name
  {bde4a8d2-7205-4bac-9da8-ab555accac96}, ! UUID
  {1a4f1c82-fc12-4949-96a0-e20c1cc7bbf8}, ! Version UUID
  1366311575,                             ! Creation Timestamp
  1366311575,                             ! Version Timestamp
  {4b515997-1efb-476b-baf8-8f1366cd4771}; ! Name of Object 1

