
OS:Version,
  {36f9071e-a591-4aad-933d-e492fa9559a9}, ! Handle
  0.9.3;                                  ! Version Identifier

OS:SizingPeriod:DesignDay,
  {89cf1fbd-9cfa-4643-a2dc-6be1823133be}, ! Handle
  Newark Ann Clg .4% Condns DP=>MDB,      ! Name
  27.8,                                   ! Maximum Dry-Bulb Temperature {C}
  8.9,                                    ! Daily Dry-Bulb Temperature Range {deltaC}
  23.7,                                   ! Humidity Indicating Conditions at Maximum Dry-Bulb {BasedOnField A3}
  101217,                                 ! Barometric Pressure {Pa}
  5.8,                                    ! Wind Speed {m/s}
  250,                                    ! Wind Direction {deg}
  0,                                      ! Sky Clearness
  0,                                      ! Rain Indicator
  0,                                      ! Snow Indicator
  21,                                     ! Day of Month
  7,                                      ! Month
  SummerDesignDay,                        ! Day Type
  0,                                      ! Daylight Saving Time Indicator
  Dewpoint,                               ! Humidity Indicating Type
  ,                                       ! Humidity Indicating Day Schedule Name
  DefaultMultipliers,                     ! Dry-Bulb Temperature Range Modifier Type
  ,                                       ! Dry-Bulb Temperature Range Modifier Schedule Name
  ASHRAETau,                              ! Solar Model Indicator
  ,                                       ! Beam Solar Day Schedule Name
  ,                                       ! Diffuse Solar Day Schedule Name
  0.528,                                  ! ASHRAE Taub {dimensionless}
  1.831;                                  ! ASHRAE Taud {dimensionless}

OS:ComponentData,
  {4321000c-dae8-4e28-a4fa-e0b5f05671e2}, ! Handle
  Component Data 1,                       ! Name
  {7adb7e64-25dd-48ec-ae33-6d0c888174c6}, ! UUID
  {c7acd3a1-156e-40ca-b1e8-ea0219286a23}, ! Version UUID
  1366309332,                             ! Creation Timestamp
  1366309332,                             ! Version Timestamp
  {89cf1fbd-9cfa-4643-a2dc-6be1823133be}; ! Name of Object 1

