
OS:Version,
  {48927877-b6f1-4202-8ede-2e3a4b25fc8e}, ! Handle
  0.9.3;                                  ! Version Identifier

OS:SizingPeriod:DesignDay,
  {9a894891-3010-44d4-8a97-fa3c1b0a49d9}, ! Handle
  Pullman Moscow Rgnl Ann Htg 99.6% Condns DB, ! Name
  -12.7,                                  ! Maximum Dry-Bulb Temperature {C}
  0,                                      ! Daily Dry-Bulb Temperature Range {deltaC}
  -12.7,                                  ! Humidity Indicating Conditions at Maximum Dry-Bulb {BasedOnField A3}
  92321,                                  ! Barometric Pressure {Pa}
  1.9,                                    ! Wind Speed {m/s}
  70,                                     ! Wind Direction {deg}
  0,                                      ! Sky Clearness
  0,                                      ! Rain Indicator
  0,                                      ! Snow Indicator
  21,                                     ! Day of Month
  12,                                     ! Month
  WinterDesignDay,                        ! Day Type
  0,                                      ! Daylight Saving Time Indicator
  Wetbulb,                                ! Humidity Indicating Type
  ,                                       ! Humidity Indicating Day Schedule Name
  DefaultMultipliers,                     ! Dry-Bulb Temperature Range Modifier Type
  ,                                       ! Dry-Bulb Temperature Range Modifier Schedule Name
  ASHRAEClearSky;                         ! Solar Model Indicator

OS:ComponentData,
  {7d1678c7-8bec-48e7-a1e6-d64278c25c6c}, ! Handle
  Component Data 1,                       ! Name
  {08c2d8f1-1433-4de1-ba61-faedd470413d}, ! UUID
  {7976bb6b-64e4-4eba-a590-640ec92a8af5}, ! Version UUID
  1366311329,                             ! Creation Timestamp
  1366311329,                             ! Version Timestamp
  {9a894891-3010-44d4-8a97-fa3c1b0a49d9}; ! Name of Object 1

