
OS:Version,
  {cc83e3fb-ae8a-41cf-977a-5f5ff482a3f4}, ! Handle
  0.9.3;                                  ! Version Identifier

OS:SizingPeriod:DesignDay,
  {2c3312c4-9b9d-4056-8705-fa40a6a5a30f}, ! Handle
  Wilmington Ann Clg .4% Condns WB=>MDB,  ! Name
  30.7,                                   ! Maximum Dry-Bulb Temperature {C}
  9.5,                                    ! Daily Dry-Bulb Temperature Range {deltaC}
  25.6,                                   ! Humidity Indicating Conditions at Maximum Dry-Bulb {BasedOnField A3}
  101037,                                 ! Barometric Pressure {Pa}
  4.6,                                    ! Wind Speed {m/s}
  240,                                    ! Wind Direction {deg}
  0,                                      ! Sky Clearness
  0,                                      ! Rain Indicator
  0,                                      ! Snow Indicator
  21,                                     ! Day of Month
  7,                                      ! Month
  SummerDesignDay,                        ! Day Type
  0,                                      ! Daylight Saving Time Indicator
  Wetbulb,                                ! Humidity Indicating Type
  ,                                       ! Humidity Indicating Day Schedule Name
  DefaultMultipliers,                     ! Dry-Bulb Temperature Range Modifier Type
  ,                                       ! Dry-Bulb Temperature Range Modifier Schedule Name
  ASHRAETau,                              ! Solar Model Indicator
  ,                                       ! Beam Solar Day Schedule Name
  ,                                       ! Diffuse Solar Day Schedule Name
  0.557,                                  ! ASHRAE Taub {dimensionless}
  1.755;                                  ! ASHRAE Taud {dimensionless}

OS:ComponentData,
  {928d56d5-a2a6-43f2-9725-96e5425e4aa2}, ! Handle
  Component Data 1,                       ! Name
  {ce273270-33c7-41b1-9c0b-9f1501b76e42}, ! UUID
  {d4f682fe-1269-4c3f-baf4-9ef9b238133b}, ! Version UUID
  1366306773,                             ! Creation Timestamp
  1366306773,                             ! Version Timestamp
  {2c3312c4-9b9d-4056-8705-fa40a6a5a30f}; ! Name of Object 1

