
OS:Version,
  {6471bc0f-9dfd-4c02-9d2e-f6bb8dbc6427}, ! Handle
  0.9.3;                                  ! Version Identifier

OS:SizingPeriod:DesignDay,
  {02424426-4d40-4ef0-b693-727424a7e6c5}, ! Handle
  Mason City Ann Clg 2% Condns Enth=>MDB, ! Name
  28.1,                                   ! Maximum Dry-Bulb Temperature {C}
  11.5,                                   ! Daily Dry-Bulb Temperature Range {deltaC}
  71800,                                  ! Humidity Indicating Conditions at Maximum Dry-Bulb {BasedOnField A3}
  96958,                                  ! Barometric Pressure {Pa}
  6.4,                                    ! Wind Speed {m/s}
  200,                                    ! Wind Direction {deg}
  0,                                      ! Sky Clearness
  0,                                      ! Rain Indicator
  0,                                      ! Snow Indicator
  21,                                     ! Day of Month
  7,                                      ! Month
  SummerDesignDay,                        ! Day Type
  0,                                      ! Daylight Saving Time Indicator
  Enthalpy,                               ! Humidity Indicating Type
  ,                                       ! Humidity Indicating Day Schedule Name
  DefaultMultipliers,                     ! Dry-Bulb Temperature Range Modifier Type
  ,                                       ! Dry-Bulb Temperature Range Modifier Schedule Name
  ASHRAETau,                              ! Solar Model Indicator
  ,                                       ! Beam Solar Day Schedule Name
  ,                                       ! Diffuse Solar Day Schedule Name
  0.409,                                  ! ASHRAE Taub {dimensionless}
  2.21;                                   ! ASHRAE Taud {dimensionless}

OS:ComponentData,
  {8ebc66bc-2272-4e99-9b41-e7a31fe018ef}, ! Handle
  Component Data 1,                       ! Name
  {cb291ce3-849e-4cf6-8782-49a1e6d2e496}, ! UUID
  {8795d4f9-55c4-4471-82c0-a1bac52bf0d1}, ! Version UUID
  1366307214,                             ! Creation Timestamp
  1366307214,                             ! Version Timestamp
  {02424426-4d40-4ef0-b693-727424a7e6c5}; ! Name of Object 1

