
OS:Version,
  {57bab09a-3637-4656-ba54-380e20f1d74c}, ! Handle
  0.9.3;                                  ! Version Identifier

OS:SizingPeriod:DesignDay,
  {42769b69-abdd-40a8-99ca-7cd89ba6c06f}, ! Handle
  Winnemucca Ann Clg 1% Condns WB=>MDB,   ! Name
  32.3,                                   ! Maximum Dry-Bulb Temperature {C}
  21.5,                                   ! Daily Dry-Bulb Temperature Range {deltaC}
  17.3,                                   ! Humidity Indicating Conditions at Maximum Dry-Bulb {BasedOnField A3}
  86493,                                  ! Barometric Pressure {Pa}
  4.4,                                    ! Wind Speed {m/s}
  240,                                    ! Wind Direction {deg}
  0,                                      ! Sky Clearness
  0,                                      ! Rain Indicator
  0,                                      ! Snow Indicator
  21,                                     ! Day of Month
  7,                                      ! Month
  SummerDesignDay,                        ! Day Type
  0,                                      ! Daylight Saving Time Indicator
  Wetbulb,                                ! Humidity Indicating Type
  ,                                       ! Humidity Indicating Day Schedule Name
  DefaultMultipliers,                     ! Dry-Bulb Temperature Range Modifier Type
  ,                                       ! Dry-Bulb Temperature Range Modifier Schedule Name
  ASHRAETau,                              ! Solar Model Indicator
  ,                                       ! Beam Solar Day Schedule Name
  ,                                       ! Diffuse Solar Day Schedule Name
  0.441,                                  ! ASHRAE Taub {dimensionless}
  1.893;                                  ! ASHRAE Taud {dimensionless}

