
OS:Version,
  {b45a84a8-5d4d-427f-9c5c-76f49433fdfb}, ! Handle
  0.9.3;                                  ! Version Identifier

OS:SizingPeriod:DesignDay,
  {b49f18cd-ba0c-4262-89f1-b6743fde4713}, ! Handle
  Massena Ann Clg .4% Condns DB=>MWB,     ! Name
  31,                                     ! Maximum Dry-Bulb Temperature {C}
  11.7,                                   ! Daily Dry-Bulb Temperature Range {deltaC}
  22.6,                                   ! Humidity Indicating Conditions at Maximum Dry-Bulb {BasedOnField A3}
  100547,                                 ! Barometric Pressure {Pa}
  4.7,                                    ! Wind Speed {m/s}
  240,                                    ! Wind Direction {deg}
  0,                                      ! Sky Clearness
  0,                                      ! Rain Indicator
  0,                                      ! Snow Indicator
  21,                                     ! Day of Month
  7,                                      ! Month
  SummerDesignDay,                        ! Day Type
  0,                                      ! Daylight Saving Time Indicator
  Wetbulb,                                ! Humidity Indicating Type
  ,                                       ! Humidity Indicating Day Schedule Name
  DefaultMultipliers,                     ! Dry-Bulb Temperature Range Modifier Type
  ,                                       ! Dry-Bulb Temperature Range Modifier Schedule Name
  ASHRAETau,                              ! Solar Model Indicator
  ,                                       ! Beam Solar Day Schedule Name
  ,                                       ! Diffuse Solar Day Schedule Name
  0.454,                                  ! ASHRAE Taub {dimensionless}
  2.024;                                  ! ASHRAE Taud {dimensionless}

OS:ComponentData,
  {ab876187-f6fb-4c98-914e-b6113c795522}, ! Handle
  Component Data 1,                       ! Name
  {7378b2ad-e727-4c7e-8631-580c7e965d3d}, ! UUID
  {afb7e5aa-a038-40f0-8a45-ee64d7364dbe}, ! Version UUID
  1366309650,                             ! Creation Timestamp
  1366309650,                             ! Version Timestamp
  {b49f18cd-ba0c-4262-89f1-b6743fde4713}; ! Name of Object 1

