
OS:Version,
  {287d7bad-e09f-47d7-a47d-9eb06dbfc4db}, ! Handle
  0.9.3;                                  ! Version Identifier

OS:SizingPeriod:DesignDay,
  {d61ae510-6d0d-4d40-a490-4c0a41d8ff92}, ! Handle
  Nome Municipal Arpt Ann Clg 2% Condns DB=>MWB, ! Name
  16.4,                                   ! Maximum Dry-Bulb Temperature {C}
  5.9,                                    ! Daily Dry-Bulb Temperature Range {deltaC}
  12.3,                                   ! Humidity Indicating Conditions at Maximum Dry-Bulb {BasedOnField A3}
  101277,                                 ! Barometric Pressure {Pa}
  4.8,                                    ! Wind Speed {m/s}
  260,                                    ! Wind Direction {deg}
  0,                                      ! Sky Clearness
  0,                                      ! Rain Indicator
  0,                                      ! Snow Indicator
  21,                                     ! Day of Month
  7,                                      ! Month
  SummerDesignDay,                        ! Day Type
  0,                                      ! Daylight Saving Time Indicator
  Wetbulb,                                ! Humidity Indicating Type
  ,                                       ! Humidity Indicating Day Schedule Name
  DefaultMultipliers,                     ! Dry-Bulb Temperature Range Modifier Type
  ,                                       ! Dry-Bulb Temperature Range Modifier Schedule Name
  ASHRAETau,                              ! Solar Model Indicator
  ,                                       ! Beam Solar Day Schedule Name
  ,                                       ! Diffuse Solar Day Schedule Name
  0.408,                                  ! ASHRAE Taub {dimensionless}
  2.08;                                   ! ASHRAE Taud {dimensionless}

OS:ComponentData,
  {a4a85349-9b71-47ef-81b5-78681cd22cef}, ! Handle
  Component Data 1,                       ! Name
  {0e4437ed-71a2-4bea-bc7a-d7cd36bbda63}, ! UUID
  {07363bde-1dd9-4d08-be2e-7416f3dfa195}, ! Version UUID
  1366305463,                             ! Creation Timestamp
  1366305463,                             ! Version Timestamp
  {d61ae510-6d0d-4d40-a490-4c0a41d8ff92}; ! Name of Object 1

