
OS:Version,
  {24681eb6-fecd-4886-a231-90131fc5d974}, ! Handle
  0.9.3;                                  ! Version Identifier

OS:SizingPeriod:DesignDay,
  {2647c7af-7878-4f93-98b5-566649b98af2}, ! Handle
  New York Laguardia Arpt Ann Clg 2% Condns DP=>MDB, ! Name
  26.4,                                   ! Maximum Dry-Bulb Temperature {C}
  7.7,                                    ! Daily Dry-Bulb Temperature Range {deltaC}
  22.2,                                   ! Humidity Indicating Conditions at Maximum Dry-Bulb {BasedOnField A3}
  101289,                                 ! Barometric Pressure {Pa}
  5.6,                                    ! Wind Speed {m/s}
  270,                                    ! Wind Direction {deg}
  0,                                      ! Sky Clearness
  0,                                      ! Rain Indicator
  0,                                      ! Snow Indicator
  21,                                     ! Day of Month
  7,                                      ! Month
  SummerDesignDay,                        ! Day Type
  0,                                      ! Daylight Saving Time Indicator
  Dewpoint,                               ! Humidity Indicating Type
  ,                                       ! Humidity Indicating Day Schedule Name
  DefaultMultipliers,                     ! Dry-Bulb Temperature Range Modifier Type
  ,                                       ! Dry-Bulb Temperature Range Modifier Schedule Name
  ASHRAETau,                              ! Solar Model Indicator
  ,                                       ! Beam Solar Day Schedule Name
  ,                                       ! Diffuse Solar Day Schedule Name
  0.532,                                  ! ASHRAE Taub {dimensionless}
  1.821;                                  ! ASHRAE Taud {dimensionless}

OS:ComponentData,
  {489a5bd5-7292-4b81-9841-df71f7bd074f}, ! Handle
  Component Data 1,                       ! Name
  {3db685c5-9f2a-4136-968b-a1304acf773f}, ! UUID
  {c227225c-a267-4f62-839f-2933503379ca}, ! Version UUID
  1366309676,                             ! Creation Timestamp
  1366309676,                             ! Version Timestamp
  {2647c7af-7878-4f93-98b5-566649b98af2}; ! Name of Object 1

