
OS:Version,
  {a5fbb462-31da-4311-ae41-984eabe54c82}, ! Handle
  0.9.3;                                  ! Version Identifier

OS:SizingPeriod:DesignDay,
  {57836e70-415e-4e48-965c-bf83f7807136}, ! Handle
  Oakland Co Intl Ann Hum_n 99% Condns DP=>MCDB, ! Name
  -13.7,                                  ! Maximum Dry-Bulb Temperature {C}
  0,                                      ! Daily Dry-Bulb Temperature Range {deltaC}
  -18.7,                                  ! Humidity Indicating Conditions at Maximum Dry-Bulb {BasedOnField A3}
  97703,                                  ! Barometric Pressure {Pa}
  3.6,                                    ! Wind Speed {m/s}
  300,                                    ! Wind Direction {deg}
  0,                                      ! Sky Clearness
  0,                                      ! Rain Indicator
  0,                                      ! Snow Indicator
  21,                                     ! Day of Month
  1,                                      ! Month
  WinterDesignDay,                        ! Day Type
  0,                                      ! Daylight Saving Time Indicator
  Dewpoint,                               ! Humidity Indicating Type
  ,                                       ! Humidity Indicating Day Schedule Name
  DefaultMultipliers,                     ! Dry-Bulb Temperature Range Modifier Type
  ,                                       ! Dry-Bulb Temperature Range Modifier Schedule Name
  ASHRAEClearSky;                         ! Solar Model Indicator

OS:ComponentData,
  {776b0201-2350-4949-ba52-0821f184e148}, ! Handle
  Component Data 1,                       ! Name
  {e26e6e66-ff61-46f0-9d22-71e52a44fc7e}, ! UUID
  {330d1c23-27ec-4805-a56b-4f6b4adb4702}, ! Version UUID
  1366308079,                             ! Creation Timestamp
  1366308079,                             ! Version Timestamp
  {57836e70-415e-4e48-965c-bf83f7807136}; ! Name of Object 1

