
OS:Version,
  {a21d99a3-2fde-4fa3-9e1c-3b533fcd65aa}, ! Handle
  0.9.3;                                  ! Version Identifier

OS:SizingPeriod:DesignDay,
  {6a440785-48cb-4c59-8d84-e95361161a20}, ! Handle
  Stewart Field Ann Clg .4% Condns WB=>MDB, ! Name
  29.2,                                   ! Maximum Dry-Bulb Temperature {C}
  10.3,                                   ! Daily Dry-Bulb Temperature Range {deltaC}
  24.5,                                   ! Humidity Indicating Conditions at Maximum Dry-Bulb {BasedOnField A3}
  99217,                                  ! Barometric Pressure {Pa}
  4.8,                                    ! Wind Speed {m/s}
  240,                                    ! Wind Direction {deg}
  0,                                      ! Sky Clearness
  0,                                      ! Rain Indicator
  0,                                      ! Snow Indicator
  21,                                     ! Day of Month
  7,                                      ! Month
  SummerDesignDay,                        ! Day Type
  0,                                      ! Daylight Saving Time Indicator
  Wetbulb,                                ! Humidity Indicating Type
  ,                                       ! Humidity Indicating Day Schedule Name
  DefaultMultipliers,                     ! Dry-Bulb Temperature Range Modifier Type
  ,                                       ! Dry-Bulb Temperature Range Modifier Schedule Name
  ASHRAETau,                              ! Solar Model Indicator
  ,                                       ! Beam Solar Day Schedule Name
  ,                                       ! Diffuse Solar Day Schedule Name
  0.476,                                  ! ASHRAE Taub {dimensionless}
  1.96;                                   ! ASHRAE Taud {dimensionless}

OS:ComponentData,
  {4eacfd53-8603-412f-8876-9f9b5404702d}, ! Handle
  Component Data 1,                       ! Name
  {9b8ddca8-8592-4492-af27-bcf67e2b3162}, ! UUID
  {145662f5-5668-471f-95c9-78ba91c7dce6}, ! Version UUID
  1366309695,                             ! Creation Timestamp
  1366309695,                             ! Version Timestamp
  {6a440785-48cb-4c59-8d84-e95361161a20}; ! Name of Object 1

