
OS:Version,
  {2df766eb-3631-46f2-80d5-0293b9e2678e}, ! Handle
  0.9.3;                                  ! Version Identifier

OS:SizingPeriod:DesignDay,
  {aefe209f-8e8a-4abb-b7d7-43ada8c022c9}, ! Handle
  Seattle Seattle Tacoma Intl A Ann Clg 2% Condns WB=>MDB, ! Name
  24.4,                                   ! Maximum Dry-Bulb Temperature {C}
  10.4,                                   ! Daily Dry-Bulb Temperature Range {deltaC}
  17.4,                                   ! Humidity Indicating Conditions at Maximum Dry-Bulb {BasedOnField A3}
  99868,                                  ! Barometric Pressure {Pa}
  4.2,                                    ! Wind Speed {m/s}
  350,                                    ! Wind Direction {deg}
  0,                                      ! Sky Clearness
  0,                                      ! Rain Indicator
  0,                                      ! Snow Indicator
  21,                                     ! Day of Month
  8,                                      ! Month
  SummerDesignDay,                        ! Day Type
  0,                                      ! Daylight Saving Time Indicator
  Wetbulb,                                ! Humidity Indicating Type
  ,                                       ! Humidity Indicating Day Schedule Name
  DefaultMultipliers,                     ! Dry-Bulb Temperature Range Modifier Type
  ,                                       ! Dry-Bulb Temperature Range Modifier Schedule Name
  ASHRAETau,                              ! Solar Model Indicator
  ,                                       ! Beam Solar Day Schedule Name
  ,                                       ! Diffuse Solar Day Schedule Name
  0.352,                                  ! ASHRAE Taub {dimensionless}
  2.561;                                  ! ASHRAE Taud {dimensionless}

OS:ComponentData,
  {ab249a9b-fdf3-46b0-afde-312f3041895c}, ! Handle
  Component Data 1,                       ! Name
  {e0a12ff5-b3f0-42b3-830a-bd8205cd6c18}, ! UUID
  {1b53763f-5d58-48aa-b937-9bd164890d89}, ! Version UUID
  1366311365,                             ! Creation Timestamp
  1366311365,                             ! Version Timestamp
  {aefe209f-8e8a-4abb-b7d7-43ada8c022c9}; ! Name of Object 1

