
OS:Version,
  {3db61170-9a33-409e-bc01-7bf5ca220b67}, ! Handle
  0.9.3;                                  ! Version Identifier

OS:SizingPeriod:DesignDay,
  {ac7e2ff8-47ef-49e3-8434-e7dce4291d69}, ! Handle
  Tupelo C D Lemons Arpt Ann Clg 1% Condns Enth=>MDB, ! Name
  31.6,                                   ! Maximum Dry-Bulb Temperature {C}
  10.4,                                   ! Daily Dry-Bulb Temperature Range {deltaC}
  79200,                                  ! Humidity Indicating Conditions at Maximum Dry-Bulb {BasedOnField A3}
  100011,                                 ! Barometric Pressure {Pa}
  3.1,                                    ! Wind Speed {m/s}
  250,                                    ! Wind Direction {deg}
  0,                                      ! Sky Clearness
  0,                                      ! Rain Indicator
  0,                                      ! Snow Indicator
  21,                                     ! Day of Month
  7,                                      ! Month
  SummerDesignDay,                        ! Day Type
  0,                                      ! Daylight Saving Time Indicator
  Enthalpy,                               ! Humidity Indicating Type
  ,                                       ! Humidity Indicating Day Schedule Name
  DefaultMultipliers,                     ! Dry-Bulb Temperature Range Modifier Type
  ,                                       ! Dry-Bulb Temperature Range Modifier Schedule Name
  ASHRAETau,                              ! Solar Model Indicator
  ,                                       ! Beam Solar Day Schedule Name
  ,                                       ! Diffuse Solar Day Schedule Name
  0.544,                                  ! ASHRAE Taub {dimensionless}
  1.812;                                  ! ASHRAE Taud {dimensionless}

OS:ComponentData,
  {88b2594f-e388-431d-9a85-c953392aed00}, ! Handle
  Component Data 1,                       ! Name
  {349b44f1-cc7d-455f-85d2-8598a99c162f}, ! UUID
  {3217313c-b63f-4771-b650-24737de4471c}, ! Version UUID
  1366308694,                             ! Creation Timestamp
  1366308694,                             ! Version Timestamp
  {ac7e2ff8-47ef-49e3-8434-e7dce4291d69}; ! Name of Object 1

