
OS:Version,
  {499d3348-a371-418b-b067-5ccae3c4db1c}, ! Handle
  0.9.3;                                  ! Version Identifier

OS:SizingPeriod:DesignDay,
  {25529c14-9407-48a3-bd96-c3e76fb550b8}, ! Handle
  SIOUX_FALLS Ann Clg 2% Condns Enth=>MDB, ! Name
  28.9,                                   ! Maximum Dry-Bulb Temperature {C}
  11.5,                                   ! Daily Dry-Bulb Temperature Range {deltaC}
  71300,                                  ! Humidity Indicating Conditions at Maximum Dry-Bulb {BasedOnField A3}
  96207,                                  ! Barometric Pressure {Pa}
  6.5,                                    ! Wind Speed {m/s}
  180,                                    ! Wind Direction {deg}
  0,                                      ! Sky Clearness
  0,                                      ! Rain Indicator
  0,                                      ! Snow Indicator
  21,                                     ! Day of Month
  7,                                      ! Month
  SummerDesignDay,                        ! Day Type
  0,                                      ! Daylight Saving Time Indicator
  Enthalpy,                               ! Humidity Indicating Type
  ,                                       ! Humidity Indicating Day Schedule Name
  DefaultMultipliers,                     ! Dry-Bulb Temperature Range Modifier Type
  ,                                       ! Dry-Bulb Temperature Range Modifier Schedule Name
  ASHRAETau,                              ! Solar Model Indicator
  ,                                       ! Beam Solar Day Schedule Name
  ,                                       ! Diffuse Solar Day Schedule Name
  0.392,                                  ! ASHRAE Taub {dimensionless}
  2.283;                                  ! ASHRAE Taud {dimensionless}

OS:ComponentData,
  {67d3bead-3491-400d-b131-e5d61577eecc}, ! Handle
  Component Data 1,                       ! Name
  {c7efadb1-4ea7-4437-84f5-0440524a2de6}, ! UUID
  {403cf3f1-40a7-42d8-9179-3176802b5bdc}, ! Version UUID
  1366310465,                             ! Creation Timestamp
  1366310465,                             ! Version Timestamp
  {25529c14-9407-48a3-bd96-c3e76fb550b8}; ! Name of Object 1

