
OS:Version,
  {2dd57862-8b50-4472-8525-4b47f064e500}, ! Handle
  0.9.3;                                  ! Version Identifier

OS:SizingPeriod:DesignDay,
  {52d03cd6-0c3e-4b1b-9319-c0fd6eaabfde}, ! Handle
  Nenana Municipal Ap Ann Clg 2% Condns DB=>MWB, ! Name
  22.8,                                   ! Maximum Dry-Bulb Temperature {C}
  11.3,                                   ! Daily Dry-Bulb Temperature Range {deltaC}
  14.4,                                   ! Humidity Indicating Conditions at Maximum Dry-Bulb {BasedOnField A3}
  100022,                                 ! Barometric Pressure {Pa}
  2.6,                                    ! Wind Speed {m/s}
  60,                                     ! Wind Direction {deg}
  0,                                      ! Sky Clearness
  0,                                      ! Rain Indicator
  0,                                      ! Snow Indicator
  21,                                     ! Day of Month
  7,                                      ! Month
  SummerDesignDay,                        ! Day Type
  0,                                      ! Daylight Saving Time Indicator
  Wetbulb,                                ! Humidity Indicating Type
  ,                                       ! Humidity Indicating Day Schedule Name
  DefaultMultipliers,                     ! Dry-Bulb Temperature Range Modifier Type
  ,                                       ! Dry-Bulb Temperature Range Modifier Schedule Name
  ASHRAETau,                              ! Solar Model Indicator
  ,                                       ! Beam Solar Day Schedule Name
  ,                                       ! Diffuse Solar Day Schedule Name
  0.38,                                   ! ASHRAE Taub {dimensionless}
  2.23;                                   ! ASHRAE Taud {dimensionless}

OS:ComponentData,
  {6abdfa64-f71e-47f6-b2f5-085824a68697}, ! Handle
  Component Data 1,                       ! Name
  {04610d59-6b2c-402f-9444-5d5656c267b4}, ! UUID
  {5874699f-6036-4aec-bd79-ada2b7519242}, ! Version UUID
  1366305441,                             ! Creation Timestamp
  1366305441,                             ! Version Timestamp
  {52d03cd6-0c3e-4b1b-9319-c0fd6eaabfde}; ! Name of Object 1

