
OS:Version,
  {71dba9a9-518c-4c10-882f-637f03312e03}, ! Handle
  0.9.3;                                  ! Version Identifier

OS:SizingPeriod:DesignDay,
  {736e4e30-9b10-4df1-8ab2-bdde36c777ae}, ! Handle
  WINNEMUCCA Ann Clg 2% Condns DP=>MDB,   ! Name
  21.9,                                   ! Maximum Dry-Bulb Temperature {C}
  21.5,                                   ! Daily Dry-Bulb Temperature Range {deltaC}
  9.8,                                    ! Humidity Indicating Conditions at Maximum Dry-Bulb {BasedOnField A3}
  86409,                                  ! Barometric Pressure {Pa}
  4.4,                                    ! Wind Speed {m/s}
  240,                                    ! Wind Direction {deg}
  0,                                      ! Sky Clearness
  0,                                      ! Rain Indicator
  0,                                      ! Snow Indicator
  21,                                     ! Day of Month
  7,                                      ! Month
  SummerDesignDay,                        ! Day Type
  0,                                      ! Daylight Saving Time Indicator
  Dewpoint,                               ! Humidity Indicating Type
  ,                                       ! Humidity Indicating Day Schedule Name
  DefaultMultipliers,                     ! Dry-Bulb Temperature Range Modifier Type
  ,                                       ! Dry-Bulb Temperature Range Modifier Schedule Name
  ASHRAETau,                              ! Solar Model Indicator
  ,                                       ! Beam Solar Day Schedule Name
  ,                                       ! Diffuse Solar Day Schedule Name
  0.441,                                  ! ASHRAE Taub {dimensionless}
  1.893;                                  ! ASHRAE Taud {dimensionless}

OS:ComponentData,
  {671d0b5c-b4c7-49b1-a123-bb954cfe478e}, ! Handle
  Component Data 1,                       ! Name
  {ff45644b-34ba-4898-866b-1f51e38696a7}, ! UUID
  {7fa26510-848c-4bf8-b2d6-fb5135a782f4}, ! Version UUID
  1366309560,                             ! Creation Timestamp
  1366309560,                             ! Version Timestamp
  {736e4e30-9b10-4df1-8ab2-bdde36c777ae}; ! Name of Object 1

