
OS:Version,
  {cdbc07db-ca47-4d9e-bb2c-707117eae121}, ! Handle
  0.9.3;                                  ! Version Identifier

OS:SizingPeriod:DesignDay,
  {7c3a4862-94ad-49bf-885c-9d6ddbeef5cf}, ! Handle
  Traverse City Ann Clg .4% Condns DP=>MDB, ! Name
  26.8,                                   ! Maximum Dry-Bulb Temperature {C}
  11.8,                                   ! Daily Dry-Bulb Temperature Range {deltaC}
  22.2,                                   ! Humidity Indicating Conditions at Maximum Dry-Bulb {BasedOnField A3}
  99063,                                  ! Barometric Pressure {Pa}
  5.1,                                    ! Wind Speed {m/s}
  230,                                    ! Wind Direction {deg}
  0,                                      ! Sky Clearness
  0,                                      ! Rain Indicator
  0,                                      ! Snow Indicator
  21,                                     ! Day of Month
  7,                                      ! Month
  SummerDesignDay,                        ! Day Type
  0,                                      ! Daylight Saving Time Indicator
  Dewpoint,                               ! Humidity Indicating Type
  ,                                       ! Humidity Indicating Day Schedule Name
  DefaultMultipliers,                     ! Dry-Bulb Temperature Range Modifier Type
  ,                                       ! Dry-Bulb Temperature Range Modifier Schedule Name
  ASHRAETau,                              ! Solar Model Indicator
  ,                                       ! Beam Solar Day Schedule Name
  ,                                       ! Diffuse Solar Day Schedule Name
  0.422,                                  ! ASHRAE Taub {dimensionless}
  2.177;                                  ! ASHRAE Taud {dimensionless}

OS:ComponentData,
  {bb7e0e43-2d9a-49aa-bfcb-633bacac904d}, ! Handle
  Component Data 1,                       ! Name
  {109ccb2e-44b5-4df3-8d5f-d50e15c09675}, ! UUID
  {1898ad65-5404-4d73-8ed2-3f5a12ebfae8}, ! Version UUID
  1366308121,                             ! Creation Timestamp
  1366308121,                             ! Version Timestamp
  {7c3a4862-94ad-49bf-885c-9d6ddbeef5cf}; ! Name of Object 1

