
OS:Version,
  {3d9026e8-843e-4fef-a100-ac999f0eb651}, ! Handle
  0.9.3;                                  ! Version Identifier

OS:SizingPeriod:DesignDay,
  {8dd6bcfa-1ed3-4087-9ad4-87045c0a3025}, ! Handle
  Tulsa Ann Clg .4% Condns DB=>MWB,       ! Name
  37.5,                                   ! Maximum Dry-Bulb Temperature {C}
  10.5,                                   ! Daily Dry-Bulb Temperature Range {deltaC}
  24.3,                                   ! Humidity Indicating Conditions at Maximum Dry-Bulb {BasedOnField A3}
  98875,                                  ! Barometric Pressure {Pa}
  4.9,                                    ! Wind Speed {m/s}
  190,                                    ! Wind Direction {deg}
  0,                                      ! Sky Clearness
  0,                                      ! Rain Indicator
  0,                                      ! Snow Indicator
  21,                                     ! Day of Month
  7,                                      ! Month
  SummerDesignDay,                        ! Day Type
  0,                                      ! Daylight Saving Time Indicator
  Wetbulb,                                ! Humidity Indicating Type
  ,                                       ! Humidity Indicating Day Schedule Name
  DefaultMultipliers,                     ! Dry-Bulb Temperature Range Modifier Type
  ,                                       ! Dry-Bulb Temperature Range Modifier Schedule Name
  ASHRAETau,                              ! Solar Model Indicator
  ,                                       ! Beam Solar Day Schedule Name
  ,                                       ! Diffuse Solar Day Schedule Name
  0.453,                                  ! ASHRAE Taub {dimensionless}
  2.105;                                  ! ASHRAE Taud {dimensionless}

OS:ComponentData,
  {99295f6c-e375-493e-aaf8-3579091c87f4}, ! Handle
  Component Data 1,                       ! Name
  {7d456d72-cc1f-4938-8a1e-2de52ace1425}, ! UUID
  {35272532-887a-4fd5-8487-eb99036bbd5f}, ! Version UUID
  1366309953,                             ! Creation Timestamp
  1366309953,                             ! Version Timestamp
  {8dd6bcfa-1ed3-4087-9ad4-87045c0a3025}; ! Name of Object 1

