
OS:Version,
  {c449ce61-d9ad-406b-b2f3-3ddc5566a372}, ! Handle
  0.9.3;                                  ! Version Identifier

OS:SizingPeriod:DesignDay,
  {434e617b-5135-4b83-bec9-59b239709257}, ! Handle
  Rapid City Ann Clg 2% Condns DP=>MDB,   ! Name
  23.5,                                   ! Maximum Dry-Bulb Temperature {C}
  14.8,                                   ! Daily Dry-Bulb Temperature Range {deltaC}
  16.9,                                   ! Humidity Indicating Conditions at Maximum Dry-Bulb {BasedOnField A3}
  90246,                                  ! Barometric Pressure {Pa}
  6,                                      ! Wind Speed {m/s}
  180,                                    ! Wind Direction {deg}
  0,                                      ! Sky Clearness
  0,                                      ! Rain Indicator
  0,                                      ! Snow Indicator
  21,                                     ! Day of Month
  7,                                      ! Month
  SummerDesignDay,                        ! Day Type
  0,                                      ! Daylight Saving Time Indicator
  Dewpoint,                               ! Humidity Indicating Type
  ,                                       ! Humidity Indicating Day Schedule Name
  DefaultMultipliers,                     ! Dry-Bulb Temperature Range Modifier Type
  ,                                       ! Dry-Bulb Temperature Range Modifier Schedule Name
  ASHRAETau,                              ! Solar Model Indicator
  ,                                       ! Beam Solar Day Schedule Name
  ,                                       ! Diffuse Solar Day Schedule Name
  0.41,                                   ! ASHRAE Taub {dimensionless}
  2.134;                                  ! ASHRAE Taud {dimensionless}

OS:ComponentData,
  {b455bb4a-950d-4f00-bc8e-110cd5882886}, ! Handle
  Component Data 1,                       ! Name
  {2be2e7d6-ab97-44b2-9b2a-ff8fb9e235e6}, ! UUID
  {2e97b3af-d2ca-4c2f-9861-8b641aca7804}, ! Version UUID
  1366310446,                             ! Creation Timestamp
  1366310446,                             ! Version Timestamp
  {434e617b-5135-4b83-bec9-59b239709257}; ! Name of Object 1

