
OS:Version,
  {a928ab92-d59d-4217-abc9-680c6e33d13f}, ! Handle
  0.9.3;                                  ! Version Identifier

OS:SizingPeriod:DesignDay,
  {4bb7c9ae-321b-4c53-8938-1f3025294f3e}, ! Handle
  YOUNGSTOWN Ann Htg 99% Condns DB,       ! Name
  -13.9,                                  ! Maximum Dry-Bulb Temperature {C}
  0,                                      ! Daily Dry-Bulb Temperature Range {deltaC}
  -13.9,                                  ! Humidity Indicating Conditions at Maximum Dry-Bulb {BasedOnField A3}
  97063,                                  ! Barometric Pressure {Pa}
  4,                                      ! Wind Speed {m/s}
  260,                                    ! Wind Direction {deg}
  0,                                      ! Sky Clearness
  0,                                      ! Rain Indicator
  0,                                      ! Snow Indicator
  21,                                     ! Day of Month
  1,                                      ! Month
  WinterDesignDay,                        ! Day Type
  0,                                      ! Daylight Saving Time Indicator
  Wetbulb,                                ! Humidity Indicating Type
  ,                                       ! Humidity Indicating Day Schedule Name
  DefaultMultipliers,                     ! Dry-Bulb Temperature Range Modifier Type
  ,                                       ! Dry-Bulb Temperature Range Modifier Schedule Name
  ASHRAEClearSky;                         ! Solar Model Indicator

OS:ComponentData,
  {5bf53358-b4b6-4cee-ad35-33d181f4ab27}, ! Handle
  Component Data 1,                       ! Name
  {da401e8f-559d-44d0-bc79-38ebd21ca8fe}, ! UUID
  {f6647777-3854-4c3d-9857-b93a67fbdc03}, ! Version UUID
  1366309859,                             ! Creation Timestamp
  1366309859,                             ! Version Timestamp
  {4bb7c9ae-321b-4c53-8938-1f3025294f3e}; ! Name of Object 1

