
OS:Version,
  {6c9d26b6-d754-49af-94b2-786bf4d7af9a}, ! Handle
  0.9.3;                                  ! Version Identifier

OS:SizingPeriod:DesignDay,
  {416c3c7b-4a23-4548-b010-0b38e82f1fe2}, ! Handle
  Norfolk International Ap Ann Htg Wind 99.6% Condns WS=>MCDB, ! Name
  6.1,                                    ! Maximum Dry-Bulb Temperature {C}
  0,                                      ! Daily Dry-Bulb Temperature Range {deltaC}
  6.1,                                    ! Humidity Indicating Conditions at Maximum Dry-Bulb {BasedOnField A3}
  101241,                                 ! Barometric Pressure {Pa}
  12.6,                                   ! Wind Speed {m/s}
  0,                                      ! Wind Direction {deg}
  0,                                      ! Sky Clearness
  0,                                      ! Rain Indicator
  0,                                      ! Snow Indicator
  21,                                     ! Day of Month
  1,                                      ! Month
  WinterDesignDay,                        ! Day Type
  0,                                      ! Daylight Saving Time Indicator
  Wetbulb,                                ! Humidity Indicating Type
  ,                                       ! Humidity Indicating Day Schedule Name
  DefaultMultipliers,                     ! Dry-Bulb Temperature Range Modifier Type
  ,                                       ! Dry-Bulb Temperature Range Modifier Schedule Name
  ASHRAEClearSky;                         ! Solar Model Indicator

OS:ComponentData,
  {824d564d-1417-4677-9387-b90946372e84}, ! Handle
  Component Data 1,                       ! Name
  {96b4c131-63b1-4ce9-b8d8-717d707eb314}, ! UUID
  {9df5069f-6de9-4ff9-a440-07b58583276d}, ! Version UUID
  1366311133,                             ! Creation Timestamp
  1366311133,                             ! Version Timestamp
  {416c3c7b-4a23-4548-b010-0b38e82f1fe2}; ! Name of Object 1

