
OS:Version,
  {0f02526a-f29c-4b04-a435-0a87474ce418}, ! Handle
  0.9.3;                                  ! Version Identifier

OS:SizingPeriod:DesignDay,
  {f361c8ba-dae7-4f95-ad53-954cd94c0038}, ! Handle
  WATERLOO Ann Htg 99% Condns DB,         ! Name
  -21.3,                                  ! Maximum Dry-Bulb Temperature {C}
  0,                                      ! Daily Dry-Bulb Temperature Range {deltaC}
  -21.3,                                  ! Humidity Indicating Conditions at Maximum Dry-Bulb {BasedOnField A3}
  98182,                                  ! Barometric Pressure {Pa}
  3.9,                                    ! Wind Speed {m/s}
  310,                                    ! Wind Direction {deg}
  0,                                      ! Sky Clearness
  0,                                      ! Rain Indicator
  0,                                      ! Snow Indicator
  21,                                     ! Day of Month
  1,                                      ! Month
  WinterDesignDay,                        ! Day Type
  0,                                      ! Daylight Saving Time Indicator
  Wetbulb,                                ! Humidity Indicating Type
  ,                                       ! Humidity Indicating Day Schedule Name
  DefaultMultipliers,                     ! Dry-Bulb Temperature Range Modifier Type
  ,                                       ! Dry-Bulb Temperature Range Modifier Schedule Name
  ASHRAEClearSky;                         ! Solar Model Indicator

OS:ComponentData,
  {4c1a89a3-2a5d-4d20-939d-3eeffd70e096}, ! Handle
  Component Data 1,                       ! Name
  {40a5615e-50df-4324-bd63-86258035ff52}, ! UUID
  {85fc15d1-e293-47a3-bd44-d06fe29c5575}, ! Version UUID
  1366307251,                             ! Creation Timestamp
  1366307251,                             ! Version Timestamp
  {f361c8ba-dae7-4f95-ad53-954cd94c0038}; ! Name of Object 1

