
OS:Version,
  {34f77c15-fecc-410a-83a2-1b83a5c893f7}, ! Handle
  0.9.3;                                  ! Version Identifier

OS:SizingPeriod:DesignDay,
  {16f1c32b-d2b1-4f18-99ad-c0cfc602a7b5}, ! Handle
  St Petersburg Clear Ann Clg .4% Condns DP=>MDB, ! Name
  29.4,                                   ! Maximum Dry-Bulb Temperature {C}
  7.1,                                    ! Daily Dry-Bulb Temperature Range {deltaC}
  26.9,                                   ! Humidity Indicating Conditions at Maximum Dry-Bulb {BasedOnField A3}
  101289,                                 ! Barometric Pressure {Pa}
  4.1,                                    ! Wind Speed {m/s}
  320,                                    ! Wind Direction {deg}
  0,                                      ! Sky Clearness
  0,                                      ! Rain Indicator
  0,                                      ! Snow Indicator
  21,                                     ! Day of Month
  8,                                      ! Month
  SummerDesignDay,                        ! Day Type
  0,                                      ! Daylight Saving Time Indicator
  Dewpoint,                               ! Humidity Indicating Type
  ,                                       ! Humidity Indicating Day Schedule Name
  DefaultMultipliers,                     ! Dry-Bulb Temperature Range Modifier Type
  ,                                       ! Dry-Bulb Temperature Range Modifier Schedule Name
  ASHRAETau,                              ! Solar Model Indicator
  ,                                       ! Beam Solar Day Schedule Name
  ,                                       ! Diffuse Solar Day Schedule Name
  0.49,                                   ! ASHRAE Taub {dimensionless}
  2.029;                                  ! ASHRAE Taud {dimensionless}

OS:ComponentData,
  {0d1dbbc1-2124-48ce-9c4b-177cdf7b46e5}, ! Handle
  Component Data 1,                       ! Name
  {6bb925dd-38b1-4b14-b5b0-98072c92d8e8}, ! UUID
  {dc7ac8db-d4c5-4f50-baa7-a50a869dbbcd}, ! Version UUID
  1366306917,                             ! Creation Timestamp
  1366306917,                             ! Version Timestamp
  {16f1c32b-d2b1-4f18-99ad-c0cfc602a7b5}; ! Name of Object 1

