
OS:Version,
  {d0abc0f5-a40c-4dee-86ab-9a2c0f3fdc9c}, ! Handle
  0.9.3;                                  ! Version Identifier

OS:SizingPeriod:DesignDay,
  {cbe488c6-ea51-4c6f-bb48-c62f57b5b7bd}, ! Handle
  SPRINGFIELD Ann Clg 1% Condns WB=>MDB,  ! Name
  31,                                     ! Maximum Dry-Bulb Temperature {C}
  11,                                     ! Daily Dry-Bulb Temperature Range {deltaC}
  24.8,                                   ! Humidity Indicating Conditions at Maximum Dry-Bulb {BasedOnField A3}
  96761,                                  ! Barometric Pressure {Pa}
  3.9,                                    ! Wind Speed {m/s}
  180,                                    ! Wind Direction {deg}
  0,                                      ! Sky Clearness
  0,                                      ! Rain Indicator
  0,                                      ! Snow Indicator
  21,                                     ! Day of Month
  7,                                      ! Month
  SummerDesignDay,                        ! Day Type
  0,                                      ! Daylight Saving Time Indicator
  Wetbulb,                                ! Humidity Indicating Type
  ,                                       ! Humidity Indicating Day Schedule Name
  DefaultMultipliers,                     ! Dry-Bulb Temperature Range Modifier Type
  ,                                       ! Dry-Bulb Temperature Range Modifier Schedule Name
  ASHRAETau,                              ! Solar Model Indicator
  ,                                       ! Beam Solar Day Schedule Name
  ,                                       ! Diffuse Solar Day Schedule Name
  0.448,                                  ! ASHRAE Taub {dimensionless}
  2.097;                                  ! ASHRAE Taud {dimensionless}

OS:ComponentData,
  {734d5da1-3804-47eb-9033-2c3951fd97a5}, ! Handle
  Component Data 1,                       ! Name
  {9483b45a-47de-4485-9ebb-ec31695bf5f6}, ! UUID
  {d5958662-6709-4d5c-a9ca-b5ebc6701e5e}, ! Version UUID
  1366308560,                             ! Creation Timestamp
  1366308560,                             ! Version Timestamp
  {cbe488c6-ea51-4c6f-bb48-c62f57b5b7bd}; ! Name of Object 1

