
OS:Version,
  {296ff1e4-60c8-423f-8f7f-125947b09ef0}, ! Handle
  0.9.3;                                  ! Version Identifier

OS:SizingPeriod:DesignDay,
  {010b7d79-d28c-438c-a2e8-c9357fca3f45}, ! Handle
  Univ Of Illinois Wi  Bondvill Ann Htg 99.6% Condns DB, ! Name
  -18.3,                                  ! Maximum Dry-Bulb Temperature {C}
  0,                                      ! Daily Dry-Bulb Temperature Range {deltaC}
  -18.3,                                  ! Humidity Indicating Conditions at Maximum Dry-Bulb {BasedOnField A3}
  98792,                                  ! Barometric Pressure {Pa}
  5.1,                                    ! Wind Speed {m/s}
  270,                                    ! Wind Direction {deg}
  0,                                      ! Sky Clearness
  0,                                      ! Rain Indicator
  0,                                      ! Snow Indicator
  21,                                     ! Day of Month
  1,                                      ! Month
  WinterDesignDay,                        ! Day Type
  0,                                      ! Daylight Saving Time Indicator
  Wetbulb,                                ! Humidity Indicating Type
  ,                                       ! Humidity Indicating Day Schedule Name
  DefaultMultipliers,                     ! Dry-Bulb Temperature Range Modifier Type
  ,                                       ! Dry-Bulb Temperature Range Modifier Schedule Name
  ASHRAEClearSky;                         ! Solar Model Indicator

