
OS:Version,
  {74ef2a29-ecc9-470a-a954-bbbf94417a2a}, ! Handle
  0.9.3;                                  ! Version Identifier

OS:SizingPeriod:DesignDay,
  {e94ebe28-1880-45a6-9ad0-8795268e96cb}, ! Handle
  Orlando Sanford Airport Ann Htg Wind 99.6% Condns WS=>MCDB, ! Name
  15,                                     ! Maximum Dry-Bulb Temperature {C}
  0,                                      ! Daily Dry-Bulb Temperature Range {deltaC}
  15,                                     ! Humidity Indicating Conditions at Maximum Dry-Bulb {BasedOnField A3}
  101121,                                 ! Barometric Pressure {Pa}
  10.4,                                   ! Wind Speed {m/s}
  300,                                    ! Wind Direction {deg}
  0,                                      ! Sky Clearness
  0,                                      ! Rain Indicator
  0,                                      ! Snow Indicator
  21,                                     ! Day of Month
  1,                                      ! Month
  WinterDesignDay,                        ! Day Type
  0,                                      ! Daylight Saving Time Indicator
  Wetbulb,                                ! Humidity Indicating Type
  ,                                       ! Humidity Indicating Day Schedule Name
  DefaultMultipliers,                     ! Dry-Bulb Temperature Range Modifier Type
  ,                                       ! Dry-Bulb Temperature Range Modifier Schedule Name
  ASHRAEClearSky;                         ! Solar Model Indicator

OS:ComponentData,
  {b0b6c224-b444-498f-ba6b-069bb6eaf285}, ! Handle
  Component Data 1,                       ! Name
  {4dc9ca20-eca0-4bc9-aac6-b25ad0581cb2}, ! UUID
  {4898a0be-0a2a-4670-a470-febd9ae84c65}, ! Version UUID
  1366306883,                             ! Creation Timestamp
  1366306883,                             ! Version Timestamp
  {e94ebe28-1880-45a6-9ad0-8795268e96cb}; ! Name of Object 1

