
OS:Version,
  {99c2fbb6-37c4-4cc6-bb13-898cf1ff4102}, ! Handle
  0.9.3;                                  ! Version Identifier

OS:SizingPeriod:DesignDay,
  {f42fbfe9-21ce-4d8b-ae09-ad67b759dff5}, ! Handle
  Phoenix/Int'l Airport Ann Clg 2% Condns DB=>MWB, ! Name
  41.2,                                   ! Maximum Dry-Bulb Temperature {C}
  12,                                     ! Daily Dry-Bulb Temperature Range {deltaC}
  20.9,                                   ! Humidity Indicating Conditions at Maximum Dry-Bulb {BasedOnField A3}
  97342,                                  ! Barometric Pressure {Pa}
  4.1,                                    ! Wind Speed {m/s}
  260,                                    ! Wind Direction {deg}
  0,                                      ! Sky Clearness
  0,                                      ! Rain Indicator
  0,                                      ! Snow Indicator
  21,                                     ! Day of Month
  7,                                      ! Month
  SummerDesignDay,                        ! Day Type
  0,                                      ! Daylight Saving Time Indicator
  Wetbulb,                                ! Humidity Indicating Type
  ,                                       ! Humidity Indicating Day Schedule Name
  DefaultMultipliers,                     ! Dry-Bulb Temperature Range Modifier Type
  ,                                       ! Dry-Bulb Temperature Range Modifier Schedule Name
  ASHRAETau,                              ! Solar Model Indicator
  ,                                       ! Beam Solar Day Schedule Name
  ,                                       ! Diffuse Solar Day Schedule Name
  0.588,                                  ! ASHRAE Taub {dimensionless}
  1.653;                                  ! ASHRAE Taud {dimensionless}

OS:ComponentData,
  {d4bf81e3-01f9-4364-9502-c18da43b666b}, ! Handle
  Component Data 1,                       ! Name
  {b87dcfd2-54af-482c-b774-53ac90cf624b}, ! UUID
  {5c6df8ce-2128-4501-9edf-fd286386c3a4}, ! Version UUID
  1366306291,                             ! Creation Timestamp
  1366306291,                             ! Version Timestamp
  {f42fbfe9-21ce-4d8b-ae09-ad67b759dff5}; ! Name of Object 1

