
OS:Version,
  {b564237d-d043-4cad-a495-732f2d2ac729}, ! Handle
  0.9.3;                                  ! Version Identifier

OS:SizingPeriod:DesignDay,
  {101b636f-9777-4b7c-aeb5-7e1a0bcfecc3}, ! Handle
  St Paul Downtown Ap Ann Clg 2% Condns DB=>MWB, ! Name
  28.7,                                   ! Maximum Dry-Bulb Temperature {C}
  10.3,                                   ! Daily Dry-Bulb Temperature Range {deltaC}
  21.7,                                   ! Humidity Indicating Conditions at Maximum Dry-Bulb {BasedOnField A3}
  98710,                                  ! Barometric Pressure {Pa}
  5.1,                                    ! Wind Speed {m/s}
  180,                                    ! Wind Direction {deg}
  0,                                      ! Sky Clearness
  0,                                      ! Rain Indicator
  0,                                      ! Snow Indicator
  21,                                     ! Day of Month
  7,                                      ! Month
  SummerDesignDay,                        ! Day Type
  0,                                      ! Daylight Saving Time Indicator
  Wetbulb,                                ! Humidity Indicating Type
  ,                                       ! Humidity Indicating Day Schedule Name
  DefaultMultipliers,                     ! Dry-Bulb Temperature Range Modifier Type
  ,                                       ! Dry-Bulb Temperature Range Modifier Schedule Name
  ASHRAETau,                              ! Solar Model Indicator
  ,                                       ! Beam Solar Day Schedule Name
  ,                                       ! Diffuse Solar Day Schedule Name
  0.417,                                  ! ASHRAE Taub {dimensionless}
  2.181;                                  ! ASHRAE Taud {dimensionless}

OS:ComponentData,
  {de6235d1-a1f9-4820-81ab-3d89ebeda7e7}, ! Handle
  Component Data 1,                       ! Name
  {f78e5ff3-613f-4e22-892d-b7f5eb2c5ec5}, ! UUID
  {972fdce6-4004-419b-8aaa-abd1072d3cb7}, ! Version UUID
  1366308434,                             ! Creation Timestamp
  1366308434,                             ! Version Timestamp
  {101b636f-9777-4b7c-aeb5-7e1a0bcfecc3}; ! Name of Object 1

