
OS:Version,
  {594d116b-b91a-4480-ac67-8f3eca2f19ea}, ! Handle
  0.9.3;                                  ! Version Identifier

OS:SizingPeriod:DesignDay,
  {4039f48c-32b7-4ecc-a304-ce76031216e2}, ! Handle
  Winona Muni  Awos Ann Clg .4% Condns DP=>MDB, ! Name
  28,                                     ! Maximum Dry-Bulb Temperature {C}
  10.6,                                   ! Daily Dry-Bulb Temperature Range {deltaC}
  23.9,                                   ! Humidity Indicating Conditions at Maximum Dry-Bulb {BasedOnField A3}
  98945,                                  ! Barometric Pressure {Pa}
  3.3,                                    ! Wind Speed {m/s}
  190,                                    ! Wind Direction {deg}
  0,                                      ! Sky Clearness
  0,                                      ! Rain Indicator
  0,                                      ! Snow Indicator
  21,                                     ! Day of Month
  7,                                      ! Month
  SummerDesignDay,                        ! Day Type
  0,                                      ! Daylight Saving Time Indicator
  Dewpoint,                               ! Humidity Indicating Type
  ,                                       ! Humidity Indicating Day Schedule Name
  DefaultMultipliers,                     ! Dry-Bulb Temperature Range Modifier Type
  ,                                       ! Dry-Bulb Temperature Range Modifier Schedule Name
  ASHRAETau,                              ! Solar Model Indicator
  ,                                       ! Beam Solar Day Schedule Name
  ,                                       ! Diffuse Solar Day Schedule Name
  0.424,                                  ! ASHRAE Taub {dimensionless}
  2.155;                                  ! ASHRAE Taud {dimensionless}

OS:ComponentData,
  {f1733896-1f62-4849-9f9c-2952413536a8}, ! Handle
  Component Data 1,                       ! Name
  {6862873c-642a-4f26-b743-1b582f16556e}, ! UUID
  {10364a85-8260-41d4-a0c0-a62c4f913ea7}, ! Version UUID
  1366308464,                             ! Creation Timestamp
  1366308464,                             ! Version Timestamp
  {4039f48c-32b7-4ecc-a304-ce76031216e2}; ! Name of Object 1

