
OS:Version,
  {6a743bf8-dba7-4193-9387-7a7fa443940e}, ! Handle
  0.9.3;                                  ! Version Identifier

OS:SizingPeriod:DesignDay,
  {c9823529-f309-4e56-9f58-b4117238ca61}, ! Handle
  Oakland Co Intl Ann Htg 99.6% Condns DB, ! Name
  -17.2,                                  ! Maximum Dry-Bulb Temperature {C}
  0,                                      ! Daily Dry-Bulb Temperature Range {deltaC}
  -17.2,                                  ! Humidity Indicating Conditions at Maximum Dry-Bulb {BasedOnField A3}
  97703,                                  ! Barometric Pressure {Pa}
  3.6,                                    ! Wind Speed {m/s}
  300,                                    ! Wind Direction {deg}
  0,                                      ! Sky Clearness
  0,                                      ! Rain Indicator
  0,                                      ! Snow Indicator
  21,                                     ! Day of Month
  1,                                      ! Month
  WinterDesignDay,                        ! Day Type
  0,                                      ! Daylight Saving Time Indicator
  Wetbulb,                                ! Humidity Indicating Type
  ,                                       ! Humidity Indicating Day Schedule Name
  DefaultMultipliers,                     ! Dry-Bulb Temperature Range Modifier Type
  ,                                       ! Dry-Bulb Temperature Range Modifier Schedule Name
  ASHRAEClearSky;                         ! Solar Model Indicator

OS:ComponentData,
  {47b33040-9d19-44d2-8409-1633a3c83f86}, ! Handle
  Component Data 1,                       ! Name
  {77895059-5325-49c3-b595-f39851e4db61}, ! UUID
  {0a08a762-c5c4-4346-85f9-d121d45403e6}, ! Version UUID
  1366308078,                             ! Creation Timestamp
  1366308078,                             ! Version Timestamp
  {c9823529-f309-4e56-9f58-b4117238ca61}; ! Name of Object 1

