
OS:Version,
  {272f2f4d-4da2-469a-8909-234b94c86201}, ! Handle
  0.9.3;                                  ! Version Identifier

OS:SizingPeriod:DesignDay,
  {062da4e1-cb23-437b-ac9a-e94211cb0a50}, ! Handle
  Sioux Falls Foss Field Ann Clg .4% Condns DB=>MWB, ! Name
  33.8,                                   ! Maximum Dry-Bulb Temperature {C}
  11.5,                                   ! Daily Dry-Bulb Temperature Range {deltaC}
  23.3,                                   ! Humidity Indicating Conditions at Maximum Dry-Bulb {BasedOnField A3}
  96230,                                  ! Barometric Pressure {Pa}
  6.5,                                    ! Wind Speed {m/s}
  180,                                    ! Wind Direction {deg}
  0,                                      ! Sky Clearness
  0,                                      ! Rain Indicator
  0,                                      ! Snow Indicator
  21,                                     ! Day of Month
  7,                                      ! Month
  SummerDesignDay,                        ! Day Type
  0,                                      ! Daylight Saving Time Indicator
  Wetbulb,                                ! Humidity Indicating Type
  ,                                       ! Humidity Indicating Day Schedule Name
  DefaultMultipliers,                     ! Dry-Bulb Temperature Range Modifier Type
  ,                                       ! Dry-Bulb Temperature Range Modifier Schedule Name
  ASHRAETau,                              ! Solar Model Indicator
  ,                                       ! Beam Solar Day Schedule Name
  ,                                       ! Diffuse Solar Day Schedule Name
  0.392,                                  ! ASHRAE Taub {dimensionless}
  2.283;                                  ! ASHRAE Taud {dimensionless}

OS:ComponentData,
  {b12d0ee0-030e-499e-b432-550cbc4fcfc2}, ! Handle
  Component Data 1,                       ! Name
  {ad4cc1a1-e31b-4648-a5ef-39cd1a73915b}, ! UUID
  {b809628b-600a-4e45-aeff-652d5edb2165}, ! Version UUID
  1366310459,                             ! Creation Timestamp
  1366310459,                             ! Version Timestamp
  {062da4e1-cb23-437b-ac9a-e94211cb0a50}; ! Name of Object 1

