
OS:Version,
  {8b1f5332-6ef4-4a84-b8ba-1ba852c1746c}, ! Handle
  0.9.3;                                  ! Version Identifier

OS:SizingPeriod:DesignDay,
  {94932340-4d61-495d-8ad7-bea929dfaadb}, ! Handle
  San Luis Co Rgnl Ann Clg 1% Condns DB=>MWB, ! Name
  29,                                     ! Maximum Dry-Bulb Temperature {C}
  12.2,                                   ! Daily Dry-Bulb Temperature Range {deltaC}
  17.4,                                   ! Humidity Indicating Conditions at Maximum Dry-Bulb {BasedOnField A3}
  100535,                                 ! Barometric Pressure {Pa}
  4.9,                                    ! Wind Speed {m/s}
  300,                                    ! Wind Direction {deg}
  0,                                      ! Sky Clearness
  0,                                      ! Rain Indicator
  0,                                      ! Snow Indicator
  21,                                     ! Day of Month
  8,                                      ! Month
  SummerDesignDay,                        ! Day Type
  0,                                      ! Daylight Saving Time Indicator
  Wetbulb,                                ! Humidity Indicating Type
  ,                                       ! Humidity Indicating Day Schedule Name
  DefaultMultipliers,                     ! Dry-Bulb Temperature Range Modifier Type
  ,                                       ! Dry-Bulb Temperature Range Modifier Schedule Name
  ASHRAETau,                              ! Solar Model Indicator
  ,                                       ! Beam Solar Day Schedule Name
  ,                                       ! Diffuse Solar Day Schedule Name
  0.375,                                  ! ASHRAE Taub {dimensionless}
  2.406;                                  ! ASHRAE Taud {dimensionless}

OS:ComponentData,
  {c0e4dd62-449b-4515-8150-3ded617270cb}, ! Handle
  Component Data 1,                       ! Name
  {a534a47d-6a98-40d5-8761-54497496f35e}, ! UUID
  {24b6de72-a95c-485e-b4e0-8491f429399b}, ! Version UUID
  1366306600,                             ! Creation Timestamp
  1366306600,                             ! Version Timestamp
  {94932340-4d61-495d-8ad7-bea929dfaadb}; ! Name of Object 1

