
OS:Version,
  {e304a173-ff7d-4b7f-8a7c-9aa0c99736cf}, ! Handle
  0.9.3;                                  ! Version Identifier

OS:SizingPeriod:DesignDay,
  {349da96a-27b8-444c-ba04-31bb85260648}, ! Handle
  Menominee  Awos Ann Clg .4% Condns Enth=>MDB, ! Name
  28.5,                                   ! Maximum Dry-Bulb Temperature {C}
  10.4,                                   ! Daily Dry-Bulb Temperature Range {deltaC}
  67100,                                  ! Humidity Indicating Conditions at Maximum Dry-Bulb {BasedOnField A3}
  99051,                                  ! Barometric Pressure {Pa}
  4.6,                                    ! Wind Speed {m/s}
  230,                                    ! Wind Direction {deg}
  0,                                      ! Sky Clearness
  0,                                      ! Rain Indicator
  0,                                      ! Snow Indicator
  21,                                     ! Day of Month
  7,                                      ! Month
  SummerDesignDay,                        ! Day Type
  0,                                      ! Daylight Saving Time Indicator
  Enthalpy,                               ! Humidity Indicating Type
  ,                                       ! Humidity Indicating Day Schedule Name
  DefaultMultipliers,                     ! Dry-Bulb Temperature Range Modifier Type
  ,                                       ! Dry-Bulb Temperature Range Modifier Schedule Name
  ASHRAETau,                              ! Solar Model Indicator
  ,                                       ! Beam Solar Day Schedule Name
  ,                                       ! Diffuse Solar Day Schedule Name
  0.425,                                  ! ASHRAE Taub {dimensionless}
  2.15;                                   ! ASHRAE Taud {dimensionless}

OS:ComponentData,
  {2a513162-24cd-4ae1-92f9-2ba8d4d808f7}, ! Handle
  Component Data 1,                       ! Name
  {34f250b0-5c74-4392-9319-1e7e552c76cb}, ! UUID
  {248d0931-f133-4cd6-96bc-d235a987bfb8}, ! Version UUID
  1366308065,                             ! Creation Timestamp
  1366308065,                             ! Version Timestamp
  {349da96a-27b8-444c-ba04-31bb85260648}; ! Name of Object 1

