
OS:Version,
  {f7f99512-bb40-4d99-a894-fde46346fec2}, ! Handle
  0.9.3;                                  ! Version Identifier

OS:SizingPeriod:DesignDay,
  {59b065af-a708-404d-8246-a54cecee643b}, ! Handle
  Olathe Johnson Co Ann Clg .4% Condns DB=>MWB, ! Name
  35.9,                                   ! Maximum Dry-Bulb Temperature {C}
  10.1,                                   ! Daily Dry-Bulb Temperature Range {deltaC}
  24.6,                                   ! Humidity Indicating Conditions at Maximum Dry-Bulb {BasedOnField A3}
  97376,                                  ! Barometric Pressure {Pa}
  4.7,                                    ! Wind Speed {m/s}
  210,                                    ! Wind Direction {deg}
  0,                                      ! Sky Clearness
  0,                                      ! Rain Indicator
  0,                                      ! Snow Indicator
  21,                                     ! Day of Month
  7,                                      ! Month
  SummerDesignDay,                        ! Day Type
  0,                                      ! Daylight Saving Time Indicator
  Wetbulb,                                ! Humidity Indicating Type
  ,                                       ! Humidity Indicating Day Schedule Name
  DefaultMultipliers,                     ! Dry-Bulb Temperature Range Modifier Type
  ,                                       ! Dry-Bulb Temperature Range Modifier Schedule Name
  ASHRAETau,                              ! Solar Model Indicator
  ,                                       ! Beam Solar Day Schedule Name
  ,                                       ! Diffuse Solar Day Schedule Name
  0.436,                                  ! ASHRAE Taub {dimensionless}
  2.149;                                  ! ASHRAE Taud {dimensionless}

OS:ComponentData,
  {24993384-dbb5-4955-900d-96f843b10030}, ! Handle
  Component Data 1,                       ! Name
  {0fe38bc8-ee3e-4618-8818-2e2527dbb8b3}, ! UUID
  {516a4310-2d4a-4ee9-bf5d-020fb2fd3de5}, ! Version UUID
  1366307567,                             ! Creation Timestamp
  1366307567,                             ! Version Timestamp
  {59b065af-a708-404d-8246-a54cecee643b}; ! Name of Object 1

