
OS:Version,
  {7840fbe8-658d-4201-b71a-c4c6f03643ac}, ! Handle
  0.9.3;                                  ! Version Identifier

OS:SizingPeriod:DesignDay,
  {c5aebba2-0223-496b-b8de-a328a8e424e6}, ! Handle
  Norfolk International Ap Ann Htg Wind 99% Condns WS=>MCDB, ! Name
  6.3,                                    ! Maximum Dry-Bulb Temperature {C}
  0,                                      ! Daily Dry-Bulb Temperature Range {deltaC}
  6.3,                                    ! Humidity Indicating Conditions at Maximum Dry-Bulb {BasedOnField A3}
  101241,                                 ! Barometric Pressure {Pa}
  11.6,                                   ! Wind Speed {m/s}
  0,                                      ! Wind Direction {deg}
  0,                                      ! Sky Clearness
  0,                                      ! Rain Indicator
  0,                                      ! Snow Indicator
  21,                                     ! Day of Month
  1,                                      ! Month
  WinterDesignDay,                        ! Day Type
  0,                                      ! Daylight Saving Time Indicator
  Wetbulb,                                ! Humidity Indicating Type
  ,                                       ! Humidity Indicating Day Schedule Name
  DefaultMultipliers,                     ! Dry-Bulb Temperature Range Modifier Type
  ,                                       ! Dry-Bulb Temperature Range Modifier Schedule Name
  ASHRAEClearSky;                         ! Solar Model Indicator

OS:ComponentData,
  {4c011d9e-bda8-408c-a14d-4e6a98564d05}, ! Handle
  Component Data 1,                       ! Name
  {b85aa322-7c09-4cbe-8645-abd16b1a6ebd}, ! UUID
  {71236127-310f-43ef-b3cb-3d63de22a6ca}, ! Version UUID
  1366311133,                             ! Creation Timestamp
  1366311133,                             ! Version Timestamp
  {c5aebba2-0223-496b-b8de-a328a8e424e6}; ! Name of Object 1

