
OS:Version,
  {138d6a7f-03f8-44ab-9d27-5ab5d22c7c4f}, ! Handle
  0.9.3;                                  ! Version Identifier

OS:SizingPeriod:DesignDay,
  {e5565032-d17b-4845-884d-9e746be9c2e4}, ! Handle
  Missoula Ann Clg .4% Condns Enth=>MDB,  ! Name
  29.1,                                   ! Maximum Dry-Bulb Temperature {C}
  17.5,                                   ! Daily Dry-Bulb Temperature Range {deltaC}
  56100,                                  ! Humidity Indicating Conditions at Maximum Dry-Bulb {BasedOnField A3}
  90180,                                  ! Barometric Pressure {Pa}
  4.4,                                    ! Wind Speed {m/s}
  320,                                    ! Wind Direction {deg}
  0,                                      ! Sky Clearness
  0,                                      ! Rain Indicator
  0,                                      ! Snow Indicator
  21,                                     ! Day of Month
  7,                                      ! Month
  SummerDesignDay,                        ! Day Type
  0,                                      ! Daylight Saving Time Indicator
  Enthalpy,                               ! Humidity Indicating Type
  ,                                       ! Humidity Indicating Day Schedule Name
  DefaultMultipliers,                     ! Dry-Bulb Temperature Range Modifier Type
  ,                                       ! Dry-Bulb Temperature Range Modifier Schedule Name
  ASHRAETau,                              ! Solar Model Indicator
  ,                                       ! Beam Solar Day Schedule Name
  ,                                       ! Diffuse Solar Day Schedule Name
  0.357,                                  ! ASHRAE Taub {dimensionless}
  2.409;                                  ! ASHRAE Taud {dimensionless}

OS:ComponentData,
  {ce4fd20a-97b2-4463-b4a6-5c1905aefb5d}, ! Handle
  Component Data 1,                       ! Name
  {73a7f2cf-3f25-4468-b69a-c1c7a933fde7}, ! UUID
  {637d5c68-2ca2-4979-8e03-58fd56e6c86d}, ! Version UUID
  1366308846,                             ! Creation Timestamp
  1366308846,                             ! Version Timestamp
  {e5565032-d17b-4845-884d-9e746be9c2e4}; ! Name of Object 1

