
OS:Version,
  {ff4dfd21-432e-49da-9ab4-5abef0953bd4}, ! Handle
  0.9.3;                                  ! Version Identifier

OS:SizingPeriod:DesignDay,
  {d1cc994b-abf8-4b66-9c4c-0a42034e5dc4}, ! Handle
  PIERRE Ann Htg 99.6% Condns DB,         ! Name
  -24.3,                                  ! Maximum Dry-Bulb Temperature {C}
  0,                                      ! Daily Dry-Bulb Temperature Range {deltaC}
  -24.3,                                  ! Humidity Indicating Conditions at Maximum Dry-Bulb {BasedOnField A3}
  95164,                                  ! Barometric Pressure {Pa}
  4.6,                                    ! Wind Speed {m/s}
  310,                                    ! Wind Direction {deg}
  0,                                      ! Sky Clearness
  0,                                      ! Rain Indicator
  0,                                      ! Snow Indicator
  21,                                     ! Day of Month
  1,                                      ! Month
  WinterDesignDay,                        ! Day Type
  0,                                      ! Daylight Saving Time Indicator
  Wetbulb,                                ! Humidity Indicating Type
  ,                                       ! Humidity Indicating Day Schedule Name
  DefaultMultipliers,                     ! Dry-Bulb Temperature Range Modifier Type
  ,                                       ! Dry-Bulb Temperature Range Modifier Schedule Name
  ASHRAEClearSky;                         ! Solar Model Indicator

OS:ComponentData,
  {10a74d1e-fb5b-4bb6-97b7-e396d988c537}, ! Handle
  Component Data 1,                       ! Name
  {e444abf1-cc99-4c6b-bcf8-fc6ac0739de6}, ! UUID
  {4df39ecd-53b8-4738-b37e-1867b204d9cf}, ! Version UUID
  1366310425,                             ! Creation Timestamp
  1366310425,                             ! Version Timestamp
  {d1cc994b-abf8-4b66-9c4c-0a42034e5dc4}; ! Name of Object 1

