
OS:Version,
  {130372d7-78fe-41ee-b1e7-62d03ad43310}, ! Handle
  0.9.3;                                  ! Version Identifier

OS:SizingPeriod:DesignDay,
  {898dc0e8-2396-4489-8815-b381ddbd5c87}, ! Handle
  Oscoda Wurtsmith Afb Ann Clg 2% Condns DB=>MWB, ! Name
  28.2,                                   ! Maximum Dry-Bulb Temperature {C}
  11.8,                                   ! Daily Dry-Bulb Temperature Range {deltaC}
  20.7,                                   ! Humidity Indicating Conditions at Maximum Dry-Bulb {BasedOnField A3}
  99087,                                  ! Barometric Pressure {Pa}
  5.4,                                    ! Wind Speed {m/s}
  200,                                    ! Wind Direction {deg}
  0,                                      ! Sky Clearness
  0,                                      ! Rain Indicator
  0,                                      ! Snow Indicator
  21,                                     ! Day of Month
  7,                                      ! Month
  SummerDesignDay,                        ! Day Type
  0,                                      ! Daylight Saving Time Indicator
  Wetbulb,                                ! Humidity Indicating Type
  ,                                       ! Humidity Indicating Day Schedule Name
  DefaultMultipliers,                     ! Dry-Bulb Temperature Range Modifier Type
  ,                                       ! Dry-Bulb Temperature Range Modifier Schedule Name
  ASHRAETau,                              ! Solar Model Indicator
  ,                                       ! Beam Solar Day Schedule Name
  ,                                       ! Diffuse Solar Day Schedule Name
  0.426,                                  ! ASHRAE Taub {dimensionless}
  2.154;                                  ! ASHRAE Taud {dimensionless}

OS:ComponentData,
  {94d1f05a-8304-4e6a-8704-e14af04fa973}, ! Handle
  Component Data 1,                       ! Name
  {593a2ac8-4aa0-44d8-95a0-33094e51dbc6}, ! UUID
  {f52f7b55-0f7c-4cfa-84ad-f4e5fed673d5}, ! Version UUID
  1366308083,                             ! Creation Timestamp
  1366308083,                             ! Version Timestamp
  {898dc0e8-2396-4489-8815-b381ddbd5c87}; ! Name of Object 1

