
OS:Version,
  {5e964db7-0d9f-4d37-a7a2-6597cbe98ddd}, ! Handle
  0.9.3;                                  ! Version Identifier

OS:SizingPeriod:DesignDay,
  {0e321532-2ccc-41c6-b8f6-fb86cefdc9ba}, ! Handle
  Pine Bluff Faa Ap Ann Clg .4% Condns WB=>MDB, ! Name
  33.2,                                   ! Maximum Dry-Bulb Temperature {C}
  10.3,                                   ! Daily Dry-Bulb Temperature Range {deltaC}
  26.9,                                   ! Humidity Indicating Conditions at Maximum Dry-Bulb {BasedOnField A3}
  100570,                                 ! Barometric Pressure {Pa}
  2.9,                                    ! Wind Speed {m/s}
  210,                                    ! Wind Direction {deg}
  0,                                      ! Sky Clearness
  0,                                      ! Rain Indicator
  0,                                      ! Snow Indicator
  21,                                     ! Day of Month
  7,                                      ! Month
  SummerDesignDay,                        ! Day Type
  0,                                      ! Daylight Saving Time Indicator
  Wetbulb,                                ! Humidity Indicating Type
  ,                                       ! Humidity Indicating Day Schedule Name
  DefaultMultipliers,                     ! Dry-Bulb Temperature Range Modifier Type
  ,                                       ! Dry-Bulb Temperature Range Modifier Schedule Name
  ASHRAETau,                              ! Solar Model Indicator
  ,                                       ! Beam Solar Day Schedule Name
  ,                                       ! Diffuse Solar Day Schedule Name
  0.517,                                  ! ASHRAE Taub {dimensionless}
  1.899;                                  ! ASHRAE Taud {dimensionless}

OS:ComponentData,
  {f5b571dd-754f-4099-bba9-5fccb948e672}, ! Handle
  Component Data 1,                       ! Name
  {401b91fe-5ede-4765-b635-8e7d7281f536}, ! UUID
  {07360eeb-1601-46fc-bbb3-0e12c65e2238}, ! Version UUID
  1366306240,                             ! Creation Timestamp
  1366306240,                             ! Version Timestamp
  {0e321532-2ccc-41c6-b8f6-fb86cefdc9ba}; ! Name of Object 1

