
OS:Version,
  {9108983d-6c36-4782-aefb-59645fa4980c}, ! Handle
  0.9.3;                                  ! Version Identifier

OS:SizingPeriod:DesignDay,
  {e4831d46-20e4-4fb6-8a4d-bc7314e732f4}, ! Handle
  Mount Clemens Selfridge Fld Ann Htg Wind 99.6% Condns WS=>MCDB, ! Name
  -5.8,                                   ! Maximum Dry-Bulb Temperature {C}
  0,                                      ! Daily Dry-Bulb Temperature Range {deltaC}
  -5.8,                                   ! Humidity Indicating Conditions at Maximum Dry-Bulb {BasedOnField A3}
  99217,                                  ! Barometric Pressure {Pa}
  12.2,                                   ! Wind Speed {m/s}
  280,                                    ! Wind Direction {deg}
  0,                                      ! Sky Clearness
  0,                                      ! Rain Indicator
  0,                                      ! Snow Indicator
  21,                                     ! Day of Month
  1,                                      ! Month
  WinterDesignDay,                        ! Day Type
  0,                                      ! Daylight Saving Time Indicator
  Wetbulb,                                ! Humidity Indicating Type
  ,                                       ! Humidity Indicating Day Schedule Name
  DefaultMultipliers,                     ! Dry-Bulb Temperature Range Modifier Type
  ,                                       ! Dry-Bulb Temperature Range Modifier Schedule Name
  ASHRAEClearSky;                         ! Solar Model Indicator

OS:ComponentData,
  {09b58a63-2b77-4c29-a742-6bec1f5dc811}, ! Handle
  Component Data 1,                       ! Name
  {2ac9c0d8-6d55-4ac3-8419-e2999aa8628c}, ! UUID
  {4708957d-d78d-46ae-9963-4dc6e83fd86e}, ! Version UUID
  1366308067,                             ! Creation Timestamp
  1366308067,                             ! Version Timestamp
  {e4831d46-20e4-4fb6-8a4d-bc7314e732f4}; ! Name of Object 1

