
OS:Version,
  {630a1f5c-5fd2-4ae7-9a5b-a3279537eb1b}, ! Handle
  0.9.3;                                  ! Version Identifier

OS:SizingPeriod:DesignDay,
  {36842e85-0432-4c92-b893-34db9fbdd1c1}, ! Handle
  NORFOLK Ann Clg 1% Condns DP=>MDB,      ! Name
  27.5,                                   ! Maximum Dry-Bulb Temperature {C}
  8.1,                                    ! Daily Dry-Bulb Temperature Range {deltaC}
  24.2,                                   ! Humidity Indicating Conditions at Maximum Dry-Bulb {BasedOnField A3}
  101217,                                 ! Barometric Pressure {Pa}
  5,                                      ! Wind Speed {m/s}
  240,                                    ! Wind Direction {deg}
  0,                                      ! Sky Clearness
  0,                                      ! Rain Indicator
  0,                                      ! Snow Indicator
  21,                                     ! Day of Month
  7,                                      ! Month
  SummerDesignDay,                        ! Day Type
  0,                                      ! Daylight Saving Time Indicator
  Dewpoint,                               ! Humidity Indicating Type
  ,                                       ! Humidity Indicating Day Schedule Name
  DefaultMultipliers,                     ! Dry-Bulb Temperature Range Modifier Type
  ,                                       ! Dry-Bulb Temperature Range Modifier Schedule Name
  ASHRAETau,                              ! Solar Model Indicator
  ,                                       ! Beam Solar Day Schedule Name
  ,                                       ! Diffuse Solar Day Schedule Name
  0.59,                                   ! ASHRAE Taub {dimensionless}
  1.703;                                  ! ASHRAE Taud {dimensionless}

OS:ComponentData,
  {206754a5-a0b7-4e72-b1cb-770e12dcfda9}, ! Handle
  Component Data 1,                       ! Name
  {0ec3caef-f5dd-45f2-a3fa-bce96b73f4c2}, ! UUID
  {98ce7e72-5354-447e-846b-9c7cdcb19c28}, ! Version UUID
  1366311124,                             ! Creation Timestamp
  1366311124,                             ! Version Timestamp
  {36842e85-0432-4c92-b893-34db9fbdd1c1}; ! Name of Object 1

