
OS:Version,
  {61b01f7e-9ed9-4955-bf58-8871461c5635}, ! Handle
  0.9.3;                                  ! Version Identifier

OS:SizingPeriod:DesignDay,
  {10dca8b0-c1b3-41e6-bba8-50bd61f0179f}, ! Handle
  Roseau Muni  Awos Ann Clg 1% Condns DP=>MDB, ! Name
  25.9,                                   ! Maximum Dry-Bulb Temperature {C}
  11.5,                                   ! Daily Dry-Bulb Temperature Range {deltaC}
  22.2,                                   ! Humidity Indicating Conditions at Maximum Dry-Bulb {BasedOnField A3}
  97504,                                  ! Barometric Pressure {Pa}
  5.1,                                    ! Wind Speed {m/s}
  200,                                    ! Wind Direction {deg}
  0,                                      ! Sky Clearness
  0,                                      ! Rain Indicator
  0,                                      ! Snow Indicator
  21,                                     ! Day of Month
  7,                                      ! Month
  SummerDesignDay,                        ! Day Type
  0,                                      ! Daylight Saving Time Indicator
  Dewpoint,                               ! Humidity Indicating Type
  ,                                       ! Humidity Indicating Day Schedule Name
  DefaultMultipliers,                     ! Dry-Bulb Temperature Range Modifier Type
  ,                                       ! Dry-Bulb Temperature Range Modifier Schedule Name
  ASHRAETau,                              ! Solar Model Indicator
  ,                                       ! Beam Solar Day Schedule Name
  ,                                       ! Diffuse Solar Day Schedule Name
  0.397,                                  ! ASHRAE Taub {dimensionless}
  2.252;                                  ! ASHRAE Taud {dimensionless}

OS:ComponentData,
  {ad111c67-09ac-4ae9-b2bd-d0f8aac134dc}, ! Handle
  Component Data 1,                       ! Name
  {bce2a91e-89e3-4e24-bfec-8ee29e8033b2}, ! UUID
  {155e92b3-7ea3-4cb5-8d08-4fa96092980c}, ! Version UUID
  1366308405,                             ! Creation Timestamp
  1366308405,                             ! Version Timestamp
  {10dca8b0-c1b3-41e6-bba8-50bd61f0179f}; ! Name of Object 1

