
OS:Version,
  {b4fbb3bc-7bc4-4c15-8a81-8a1b97f250de}, ! Handle
  0.9.3;                                  ! Version Identifier

OS:SizingPeriod:DesignDay,
  {aea037a0-6c9c-4b93-9279-6adfd1e2035f}, ! Handle
  NEWARK Ann Clg 2% Condns DP=>MDB,       ! Name
  26.6,                                   ! Maximum Dry-Bulb Temperature {C}
  8.9,                                    ! Daily Dry-Bulb Temperature Range {deltaC}
  22.4,                                   ! Humidity Indicating Conditions at Maximum Dry-Bulb {BasedOnField A3}
  101217,                                 ! Barometric Pressure {Pa}
  5.8,                                    ! Wind Speed {m/s}
  250,                                    ! Wind Direction {deg}
  0,                                      ! Sky Clearness
  0,                                      ! Rain Indicator
  0,                                      ! Snow Indicator
  21,                                     ! Day of Month
  7,                                      ! Month
  SummerDesignDay,                        ! Day Type
  0,                                      ! Daylight Saving Time Indicator
  Dewpoint,                               ! Humidity Indicating Type
  ,                                       ! Humidity Indicating Day Schedule Name
  DefaultMultipliers,                     ! Dry-Bulb Temperature Range Modifier Type
  ,                                       ! Dry-Bulb Temperature Range Modifier Schedule Name
  ASHRAETau,                              ! Solar Model Indicator
  ,                                       ! Beam Solar Day Schedule Name
  ,                                       ! Diffuse Solar Day Schedule Name
  0.528,                                  ! ASHRAE Taub {dimensionless}
  1.831;                                  ! ASHRAE Taud {dimensionless}

OS:ComponentData,
  {ff326d88-c3e6-49b8-a8e9-8755d575d8b0}, ! Handle
  Component Data 1,                       ! Name
  {5e0ed795-18f8-4445-8575-c876abfb9640}, ! UUID
  {10dfc5b9-b512-47a6-ac00-53c42103551d}, ! Version UUID
  1366309328,                             ! Creation Timestamp
  1366309328,                             ! Version Timestamp
  {aea037a0-6c9c-4b93-9279-6adfd1e2035f}; ! Name of Object 1

