
OS:Version,
  {87c424ba-5bc2-41c9-894f-e2ed60ccef7d}, ! Handle
  0.9.3;                                  ! Version Identifier

OS:SizingPeriod:DesignDay,
  {5db336cd-d625-413f-9ab5-3fc8687f70c1}, ! Handle
  Marietta Dobbins Afb Ann Clg 1% Condns WB=>MDB, ! Name
  30.2,                                   ! Maximum Dry-Bulb Temperature {C}
  9.6,                                    ! Daily Dry-Bulb Temperature Range {deltaC}
  24.4,                                   ! Humidity Indicating Conditions at Maximum Dry-Bulb {BasedOnField A3}
  97423,                                  ! Barometric Pressure {Pa}
  2.7,                                    ! Wind Speed {m/s}
  300,                                    ! Wind Direction {deg}
  0,                                      ! Sky Clearness
  0,                                      ! Rain Indicator
  0,                                      ! Snow Indicator
  21,                                     ! Day of Month
  7,                                      ! Month
  SummerDesignDay,                        ! Day Type
  0,                                      ! Daylight Saving Time Indicator
  Wetbulb,                                ! Humidity Indicating Type
  ,                                       ! Humidity Indicating Day Schedule Name
  DefaultMultipliers,                     ! Dry-Bulb Temperature Range Modifier Type
  ,                                       ! Dry-Bulb Temperature Range Modifier Schedule Name
  ASHRAETau,                              ! Solar Model Indicator
  ,                                       ! Beam Solar Day Schedule Name
  ,                                       ! Diffuse Solar Day Schedule Name
  0.558,                                  ! ASHRAE Taub {dimensionless}
  1.77;                                   ! ASHRAE Taud {dimensionless}

OS:ComponentData,
  {e30c2223-8569-409b-808d-8fd2b3db472f}, ! Handle
  Component Data 1,                       ! Name
  {6945dd65-d3ee-4568-a3f8-c360469d5fd3}, ! UUID
  {c9bdf78a-ac0b-43ec-8f73-89312ca4cb89}, ! Version UUID
  1366307031,                             ! Creation Timestamp
  1366307031,                             ! Version Timestamp
  {5db336cd-d625-413f-9ab5-3fc8687f70c1}; ! Name of Object 1

