
OS:Version,
  {1eccdb25-a235-42e5-adc1-3161373b3298}, ! Handle
  0.9.3;                                  ! Version Identifier

OS:SizingPeriod:DesignDay,
  {936bd557-70cf-4260-b8c6-b8d29d2b7c9a}, ! Handle
  Marietta Dobbins Afb Ann Clg 1% Condns DB=>MWB, ! Name
  32.8,                                   ! Maximum Dry-Bulb Temperature {C}
  9.6,                                    ! Daily Dry-Bulb Temperature Range {deltaC}
  23.2,                                   ! Humidity Indicating Conditions at Maximum Dry-Bulb {BasedOnField A3}
  97423,                                  ! Barometric Pressure {Pa}
  2.7,                                    ! Wind Speed {m/s}
  300,                                    ! Wind Direction {deg}
  0,                                      ! Sky Clearness
  0,                                      ! Rain Indicator
  0,                                      ! Snow Indicator
  21,                                     ! Day of Month
  7,                                      ! Month
  SummerDesignDay,                        ! Day Type
  0,                                      ! Daylight Saving Time Indicator
  Wetbulb,                                ! Humidity Indicating Type
  ,                                       ! Humidity Indicating Day Schedule Name
  DefaultMultipliers,                     ! Dry-Bulb Temperature Range Modifier Type
  ,                                       ! Dry-Bulb Temperature Range Modifier Schedule Name
  ASHRAETau,                              ! Solar Model Indicator
  ,                                       ! Beam Solar Day Schedule Name
  ,                                       ! Diffuse Solar Day Schedule Name
  0.558,                                  ! ASHRAE Taub {dimensionless}
  1.77;                                   ! ASHRAE Taud {dimensionless}

OS:ComponentData,
  {7663222e-390e-4c1b-8f06-21fda6882b21}, ! Handle
  Component Data 1,                       ! Name
  {94eb1b89-d6b4-467b-bb10-b6c0abcdb418}, ! UUID
  {61047f03-367d-4f36-b709-7b6ef1bd2b50}, ! Version UUID
  1366307031,                             ! Creation Timestamp
  1366307031,                             ! Version Timestamp
  {936bd557-70cf-4260-b8c6-b8d29d2b7c9a}; ! Name of Object 1

