
OS:Version,
  {ba307aca-67c4-4af5-ad2c-970b0fce8f5f}, ! Handle
  0.9.3;                                  ! Version Identifier

OS:SizingPeriod:DesignDay,
  {0f093704-bd00-475b-8813-5fe4a67c4256}, ! Handle
  Visalia Muni  Awos Ann Htg 99.6% Condns DB, ! Name
  -1.1,                                   ! Maximum Dry-Bulb Temperature {C}
  0,                                      ! Daily Dry-Bulb Temperature Range {deltaC}
  -1.1,                                   ! Humidity Indicating Conditions at Maximum Dry-Bulb {BasedOnField A3}
  100260,                                 ! Barometric Pressure {Pa}
  0.9,                                    ! Wind Speed {m/s}
  110,                                    ! Wind Direction {deg}
  0,                                      ! Sky Clearness
  0,                                      ! Rain Indicator
  0,                                      ! Snow Indicator
  21,                                     ! Day of Month
  12,                                     ! Month
  WinterDesignDay,                        ! Day Type
  0,                                      ! Daylight Saving Time Indicator
  Wetbulb,                                ! Humidity Indicating Type
  ,                                       ! Humidity Indicating Day Schedule Name
  DefaultMultipliers,                     ! Dry-Bulb Temperature Range Modifier Type
  ,                                       ! Dry-Bulb Temperature Range Modifier Schedule Name
  ASHRAEClearSky;                         ! Solar Model Indicator

OS:ComponentData,
  {5fcd8758-0071-47ed-bad9-65faf7c431b1}, ! Handle
  Component Data 1,                       ! Name
  {03978a76-0fbc-491d-8f82-717f73b3071f}, ! UUID
  {2726fcb8-33ab-4588-8624-262f90323874}, ! Version UUID
  1366306631,                             ! Creation Timestamp
  1366306631,                             ! Version Timestamp
  {0f093704-bd00-475b-8813-5fe4a67c4256}; ! Name of Object 1

