
OS:Version,
  {bafa1c25-2230-492a-b26f-505ce7e10fe3}, ! Handle
  0.9.3;                                  ! Version Identifier

OS:SizingPeriod:DesignDay,
  {eba2129d-c954-4109-8f91-47b6037e21a9}, ! Handle
  ROCKFORD Ann Clg 1% Condns DP=>MDB,     ! Name
  27.8,                                   ! Maximum Dry-Bulb Temperature {C}
  11,                                     ! Daily Dry-Bulb Temperature Range {deltaC}
  23.1,                                   ! Humidity Indicating Conditions at Maximum Dry-Bulb {BasedOnField A3}
  98698,                                  ! Barometric Pressure {Pa}
  5.3,                                    ! Wind Speed {m/s}
  210,                                    ! Wind Direction {deg}
  0,                                      ! Sky Clearness
  0,                                      ! Rain Indicator
  0,                                      ! Snow Indicator
  21,                                     ! Day of Month
  7,                                      ! Month
  SummerDesignDay,                        ! Day Type
  0,                                      ! Daylight Saving Time Indicator
  Dewpoint,                               ! Humidity Indicating Type
  ,                                       ! Humidity Indicating Day Schedule Name
  DefaultMultipliers,                     ! Dry-Bulb Temperature Range Modifier Type
  ,                                       ! Dry-Bulb Temperature Range Modifier Schedule Name
  ASHRAETau,                              ! Solar Model Indicator
  ,                                       ! Beam Solar Day Schedule Name
  ,                                       ! Diffuse Solar Day Schedule Name
  0.445,                                  ! ASHRAE Taub {dimensionless}
  2.082;                                  ! ASHRAE Taud {dimensionless}

OS:ComponentData,
  {af6320d4-3d68-488a-ab38-75a9c2a116e4}, ! Handle
  Component Data 1,                       ! Name
  {e9588c63-0c9e-444d-836a-c2cb2d7292d2}, ! UUID
  {aa8a7a37-37a6-4bce-ab86-346e3dbc7455}, ! Version UUID
  1366307397,                             ! Creation Timestamp
  1366307397,                             ! Version Timestamp
  {eba2129d-c954-4109-8f91-47b6037e21a9}; ! Name of Object 1

