
OS:Version,
  {02e0dec0-88b0-4ac1-93ef-1c12abec4e69}, ! Handle
  0.9.3;                                  ! Version Identifier

OS:SizingPeriod:DesignDay,
  {5e8cbb06-34d9-4c79-82c2-f01865af4d1a}, ! Handle
  Warner Robins Afb Ann Htg 99% Condns DB, ! Name
  -2.1,                                   ! Maximum Dry-Bulb Temperature {C}
  0,                                      ! Daily Dry-Bulb Temperature Range {deltaC}
  -2.1,                                   ! Humidity Indicating Conditions at Maximum Dry-Bulb {BasedOnField A3}
  100225,                                 ! Barometric Pressure {Pa}
  3,                                      ! Wind Speed {m/s}
  330,                                    ! Wind Direction {deg}
  0,                                      ! Sky Clearness
  0,                                      ! Rain Indicator
  0,                                      ! Snow Indicator
  21,                                     ! Day of Month
  1,                                      ! Month
  WinterDesignDay,                        ! Day Type
  0,                                      ! Daylight Saving Time Indicator
  Wetbulb,                                ! Humidity Indicating Type
  ,                                       ! Humidity Indicating Day Schedule Name
  DefaultMultipliers,                     ! Dry-Bulb Temperature Range Modifier Type
  ,                                       ! Dry-Bulb Temperature Range Modifier Schedule Name
  ASHRAEClearSky;                         ! Solar Model Indicator

