
OS:Version,
  {379ef87c-e23a-493f-bfe5-9aa026c805ff}, ! Handle
  0.9.3;                                  ! Version Identifier

OS:SizingPeriod:DesignDay,
  {ae91449e-c8cf-46f9-9d97-14535c3f341d}, ! Handle
  Tallahassee Ann Clg .4% Condns DP=>MDB, ! Name
  28.2,                                   ! Maximum Dry-Bulb Temperature {C}
  10.6,                                   ! Daily Dry-Bulb Temperature Range {deltaC}
  25.2,                                   ! Humidity Indicating Conditions at Maximum Dry-Bulb {BasedOnField A3}
  101073,                                 ! Barometric Pressure {Pa}
  3.4,                                    ! Wind Speed {m/s}
  10,                                     ! Wind Direction {deg}
  0,                                      ! Sky Clearness
  0,                                      ! Rain Indicator
  0,                                      ! Snow Indicator
  21,                                     ! Day of Month
  7,                                      ! Month
  SummerDesignDay,                        ! Day Type
  0,                                      ! Daylight Saving Time Indicator
  Dewpoint,                               ! Humidity Indicating Type
  ,                                       ! Humidity Indicating Day Schedule Name
  DefaultMultipliers,                     ! Dry-Bulb Temperature Range Modifier Type
  ,                                       ! Dry-Bulb Temperature Range Modifier Schedule Name
  ASHRAETau,                              ! Solar Model Indicator
  ,                                       ! Beam Solar Day Schedule Name
  ,                                       ! Diffuse Solar Day Schedule Name
  0.537,                                  ! ASHRAE Taub {dimensionless}
  1.879;                                  ! ASHRAE Taud {dimensionless}

OS:ComponentData,
  {b932449e-f434-4c6d-8fbf-20ff12433b78}, ! Handle
  Component Data 1,                       ! Name
  {2cb72633-023e-4d44-9b83-cee7667f0853}, ! UUID
  {38267bb1-bc0b-442f-8710-1251c3245b7d}, ! Version UUID
  1366306924,                             ! Creation Timestamp
  1366306924,                             ! Version Timestamp
  {ae91449e-c8cf-46f9-9d97-14535c3f341d}; ! Name of Object 1

