
OS:Version,
  {53384866-0bf4-42a3-b4d7-7946da26b55f}, ! Handle
  0.9.3;                                  ! Version Identifier

OS:SizingPeriod:DesignDay,
  {463a1706-dd17-4b3c-9d5b-bf0bf28f8a56}, ! Handle
  Valdez Pioneer Fiel Ann Htg 99% Condns DB, ! Name
  -15.1,                                  ! Maximum Dry-Bulb Temperature {C}
  0,                                      ! Daily Dry-Bulb Temperature Range {deltaC}
  -15.1,                                  ! Humidity Indicating Conditions at Maximum Dry-Bulb {BasedOnField A3}
  100869,                                 ! Barometric Pressure {Pa}
  2.3,                                    ! Wind Speed {m/s}
  90,                                     ! Wind Direction {deg}
  0,                                      ! Sky Clearness
  0,                                      ! Rain Indicator
  0,                                      ! Snow Indicator
  21,                                     ! Day of Month
  1,                                      ! Month
  WinterDesignDay,                        ! Day Type
  0,                                      ! Daylight Saving Time Indicator
  Wetbulb,                                ! Humidity Indicating Type
  ,                                       ! Humidity Indicating Day Schedule Name
  DefaultMultipliers,                     ! Dry-Bulb Temperature Range Modifier Type
  ,                                       ! Dry-Bulb Temperature Range Modifier Schedule Name
  ASHRAEClearSky;                         ! Solar Model Indicator

OS:ComponentData,
  {da7c4c92-db86-46be-a01b-4dc886bcf1e7}, ! Handle
  Component Data 1,                       ! Name
  {975357d2-e9de-4256-ae86-8ce18c6d27bb}, ! UUID
  {16fbbe52-50a8-4561-a697-9cb882b8f391}, ! Version UUID
  1366305604,                             ! Creation Timestamp
  1366305604,                             ! Version Timestamp
  {463a1706-dd17-4b3c-9d5b-bf0bf28f8a56}; ! Name of Object 1

