
OS:Version,
  {cebbac59-03c4-43c1-a7bb-f2d48255212a}, ! Handle
  0.9.3;                                  ! Version Identifier

OS:SizingPeriod:DesignDay,
  {4ca173fd-0e39-47c8-9182-381f338a75f3}, ! Handle
  Southern Pines Awos Ann Clg 2% Condns DP=>MDB, ! Name
  26.6,                                   ! Maximum Dry-Bulb Temperature {C}
  10.6,                                   ! Daily Dry-Bulb Temperature Range {deltaC}
  22.4,                                   ! Humidity Indicating Conditions at Maximum Dry-Bulb {BasedOnField A3}
  99643,                                  ! Barometric Pressure {Pa}
  3.2,                                    ! Wind Speed {m/s}
  260,                                    ! Wind Direction {deg}
  0,                                      ! Sky Clearness
  0,                                      ! Rain Indicator
  0,                                      ! Snow Indicator
  21,                                     ! Day of Month
  7,                                      ! Month
  SummerDesignDay,                        ! Day Type
  0,                                      ! Daylight Saving Time Indicator
  Dewpoint,                               ! Humidity Indicating Type
  ,                                       ! Humidity Indicating Day Schedule Name
  DefaultMultipliers,                     ! Dry-Bulb Temperature Range Modifier Type
  ,                                       ! Dry-Bulb Temperature Range Modifier Schedule Name
  ASHRAETau,                              ! Solar Model Indicator
  ,                                       ! Beam Solar Day Schedule Name
  ,                                       ! Diffuse Solar Day Schedule Name
  0.57,                                   ! ASHRAE Taub {dimensionless}
  1.741;                                  ! ASHRAE Taud {dimensionless}

OS:ComponentData,
  {6835f4e2-7848-4b1d-b5e5-41be2fbe3ca0}, ! Handle
  Component Data 1,                       ! Name
  {810bbb98-668e-409d-b4be-650ab874b4f7}, ! UUID
  {63d0e757-4500-48c1-b372-577cda1d0841}, ! Version UUID
  1366308980,                             ! Creation Timestamp
  1366308980,                             ! Version Timestamp
  {4ca173fd-0e39-47c8-9182-381f338a75f3}; ! Name of Object 1

