
OS:Version,
  {f5ebec87-46d9-4e81-bf4a-a32676eebc58}, ! Handle
  0.9.3;                                  ! Version Identifier

OS:SizingPeriod:DesignDay,
  {8baa1a8b-89e2-4a58-ac33-de062fd702a4}, ! Handle
  Rutland State Ann Htg 99.6% Condns DB,  ! Name
  -22.2,                                  ! Maximum Dry-Bulb Temperature {C}
  0,                                      ! Daily Dry-Bulb Temperature Range {deltaC}
  -22.2,                                  ! Humidity Indicating Conditions at Maximum Dry-Bulb {BasedOnField A3}
  98404,                                  ! Barometric Pressure {Pa}
  2.2,                                    ! Wind Speed {m/s}
  120,                                    ! Wind Direction {deg}
  0,                                      ! Sky Clearness
  0,                                      ! Rain Indicator
  0,                                      ! Snow Indicator
  21,                                     ! Day of Month
  1,                                      ! Month
  WinterDesignDay,                        ! Day Type
  0,                                      ! Daylight Saving Time Indicator
  Wetbulb,                                ! Humidity Indicating Type
  ,                                       ! Humidity Indicating Day Schedule Name
  DefaultMultipliers,                     ! Dry-Bulb Temperature Range Modifier Type
  ,                                       ! Dry-Bulb Temperature Range Modifier Schedule Name
  ASHRAEClearSky;                         ! Solar Model Indicator

OS:ComponentData,
  {5f4f6dbb-7a53-46e7-a655-dc0bf98e6b4a}, ! Handle
  Component Data 1,                       ! Name
  {ec6c51f9-e57f-49e5-8e28-920f36c5be3e}, ! UUID
  {79d62889-54e6-4abf-9618-3e5e53b420f0}, ! Version UUID
  1366311255,                             ! Creation Timestamp
  1366311255,                             ! Version Timestamp
  {8baa1a8b-89e2-4a58-ac33-de062fd702a4}; ! Name of Object 1

