
OS:Version,
  {4b8e5c2c-6ea7-445c-a603-aead974590ec}, ! Handle
  0.9.3;                                  ! Version Identifier

OS:SizingPeriod:DesignDay,
  {fb05bfd6-21bb-446e-944a-5c99b50e04c2}, ! Handle
  PORTLAND Ann Clg 1% Condns Enth=>MDB,   ! Name
  29.1,                                   ! Maximum Dry-Bulb Temperature {C}
  12.2,                                   ! Daily Dry-Bulb Temperature Range {deltaC}
  56600,                                  ! Humidity Indicating Conditions at Maximum Dry-Bulb {BasedOnField A3}
  101181,                                 ! Barometric Pressure {Pa}
  4.7,                                    ! Wind Speed {m/s}
  310,                                    ! Wind Direction {deg}
  0,                                      ! Sky Clearness
  0,                                      ! Rain Indicator
  0,                                      ! Snow Indicator
  21,                                     ! Day of Month
  8,                                      ! Month
  SummerDesignDay,                        ! Day Type
  0,                                      ! Daylight Saving Time Indicator
  Enthalpy,                               ! Humidity Indicating Type
  ,                                       ! Humidity Indicating Day Schedule Name
  DefaultMultipliers,                     ! Dry-Bulb Temperature Range Modifier Type
  ,                                       ! Dry-Bulb Temperature Range Modifier Schedule Name
  ASHRAETau,                              ! Solar Model Indicator
  ,                                       ! Beam Solar Day Schedule Name
  ,                                       ! Diffuse Solar Day Schedule Name
  0.358,                                  ! ASHRAE Taub {dimensionless}
  2.549;                                  ! ASHRAE Taud {dimensionless}

OS:ComponentData,
  {73c52488-78a1-4273-8290-23bfaf768e93}, ! Handle
  Component Data 1,                       ! Name
  {ecf80698-9a39-4118-a588-960c30d941d3}, ! UUID
  {860bedc8-7f29-4b3c-9538-d239b62fae94}, ! Version UUID
  1366310075,                             ! Creation Timestamp
  1366310075,                             ! Version Timestamp
  {fb05bfd6-21bb-446e-944a-5c99b50e04c2}; ! Name of Object 1

