
OS:Version,
  {e66473e5-a95f-467d-856a-4f477f858178}, ! Handle
  0.9.3;                                  ! Version Identifier

OS:SizingPeriod:DesignDay,
  {17f1e530-7380-44a8-a6fc-37640d12168e}, ! Handle
  Pueblo Ann Clg .4% Condns DB=>MWB,      ! Name
  36.9,                                   ! Maximum Dry-Bulb Temperature {C}
  18,                                     ! Daily Dry-Bulb Temperature Range {deltaC}
  17.1,                                   ! Humidity Indicating Conditions at Maximum Dry-Bulb {BasedOnField A3}
  85191,                                  ! Barometric Pressure {Pa}
  5.1,                                    ! Wind Speed {m/s}
  120,                                    ! Wind Direction {deg}
  0,                                      ! Sky Clearness
  0,                                      ! Rain Indicator
  0,                                      ! Snow Indicator
  21,                                     ! Day of Month
  7,                                      ! Month
  SummerDesignDay,                        ! Day Type
  0,                                      ! Daylight Saving Time Indicator
  Wetbulb,                                ! Humidity Indicating Type
  ,                                       ! Humidity Indicating Day Schedule Name
  DefaultMultipliers,                     ! Dry-Bulb Temperature Range Modifier Type
  ,                                       ! Dry-Bulb Temperature Range Modifier Schedule Name
  ASHRAETau,                              ! Solar Model Indicator
  ,                                       ! Beam Solar Day Schedule Name
  ,                                       ! Diffuse Solar Day Schedule Name
  0.435,                                  ! ASHRAE Taub {dimensionless}
  1.969;                                  ! ASHRAE Taud {dimensionless}

OS:ComponentData,
  {04963be7-ba8a-4bdd-94a4-f7643949d6d3}, ! Handle
  Component Data 1,                       ! Name
  {4fe7806a-1fdf-4bae-80e4-94a72d1ea9a9}, ! UUID
  {10db7dfd-acbf-463a-8dd8-b4f0c15c2b3d}, ! Version UUID
  1366306728,                             ! Creation Timestamp
  1366306728,                             ! Version Timestamp
  {17f1e530-7380-44a8-a6fc-37640d12168e}; ! Name of Object 1

