
OS:Version,
  {548f4d17-5a98-4e8a-91ad-5f9838da5be4}, ! Handle
  0.9.3;                                  ! Version Identifier

OS:SizingPeriod:DesignDay,
  {a94d8efe-8b9d-44a7-88e6-76436f30a1ee}, ! Handle
  Topeka Ann Clg 1% Condns Enth=>MDB,     ! Name
  32.2,                                   ! Maximum Dry-Bulb Temperature {C}
  11.3,                                   ! Daily Dry-Bulb Temperature Range {deltaC}
  79300,                                  ! Humidity Indicating Conditions at Maximum Dry-Bulb {BasedOnField A3}
  98123,                                  ! Barometric Pressure {Pa}
  4.9,                                    ! Wind Speed {m/s}
  200,                                    ! Wind Direction {deg}
  0,                                      ! Sky Clearness
  0,                                      ! Rain Indicator
  0,                                      ! Snow Indicator
  21,                                     ! Day of Month
  7,                                      ! Month
  SummerDesignDay,                        ! Day Type
  0,                                      ! Daylight Saving Time Indicator
  Enthalpy,                               ! Humidity Indicating Type
  ,                                       ! Humidity Indicating Day Schedule Name
  DefaultMultipliers,                     ! Dry-Bulb Temperature Range Modifier Type
  ,                                       ! Dry-Bulb Temperature Range Modifier Schedule Name
  ASHRAETau,                              ! Solar Model Indicator
  ,                                       ! Beam Solar Day Schedule Name
  ,                                       ! Diffuse Solar Day Schedule Name
  0.434,                                  ! ASHRAE Taub {dimensionless}
  2.183;                                  ! ASHRAE Taud {dimensionless}

OS:ComponentData,
  {4daee626-9c57-44d6-8b82-a52b98863e89}, ! Handle
  Component Data 1,                       ! Name
  {f18f0968-d0ff-48e2-a8d6-110af9520496}, ! UUID
  {31f40587-bead-4d15-bdcd-88cfa081ac6a}, ! Version UUID
  1366307585,                             ! Creation Timestamp
  1366307585,                             ! Version Timestamp
  {a94d8efe-8b9d-44a7-88e6-76436f30a1ee}; ! Name of Object 1

