
OS:Version,
  {cbfc0561-1625-42d8-8c8c-2dfb669ef2d3}, ! Handle
  0.9.3;                                  ! Version Identifier

OS:SizingPeriod:DesignDay,
  {976c4662-be31-4d34-b0a3-497b316ff7a1}, ! Handle
  New Orleans Lakefront Ap Ann Htg 99% Condns DB, ! Name
  3.8,                                    ! Maximum Dry-Bulb Temperature {C}
  0,                                      ! Daily Dry-Bulb Temperature Range {deltaC}
  3.8,                                    ! Humidity Indicating Conditions at Maximum Dry-Bulb {BasedOnField A3}
  101289,                                 ! Barometric Pressure {Pa}
  6.5,                                    ! Wind Speed {m/s}
  0,                                      ! Wind Direction {deg}
  0,                                      ! Sky Clearness
  0,                                      ! Rain Indicator
  0,                                      ! Snow Indicator
  21,                                     ! Day of Month
  1,                                      ! Month
  WinterDesignDay,                        ! Day Type
  0,                                      ! Daylight Saving Time Indicator
  Wetbulb,                                ! Humidity Indicating Type
  ,                                       ! Humidity Indicating Day Schedule Name
  DefaultMultipliers,                     ! Dry-Bulb Temperature Range Modifier Type
  ,                                       ! Dry-Bulb Temperature Range Modifier Schedule Name
  ASHRAEClearSky;                         ! Solar Model Indicator

OS:ComponentData,
  {998fcd8b-4d9f-4008-9bc0-f65da57f8d93}, ! Handle
  Component Data 1,                       ! Name
  {4629f3db-4e74-47cd-bf5d-4bd6a9c9de94}, ! UUID
  {117d5ddd-e05d-4db0-b872-0c678f5dfc99}, ! Version UUID
  1366307743,                             ! Creation Timestamp
  1366307743,                             ! Version Timestamp
  {976c4662-be31-4d34-b0a3-497b316ff7a1}; ! Name of Object 1

