
OS:Version,
  {8d0d1bcb-2c7e-428b-bed5-3659884e3369}, ! Handle
  0.9.3;                                  ! Version Identifier

OS:SizingPeriod:DesignDay,
  {41821ace-44bb-455a-8e8b-fefc48a4aa33}, ! Handle
  Monroe Co Ann Htg 99.6% Condns DB,      ! Name
  -15.1,                                  ! Maximum Dry-Bulb Temperature {C}
  0,                                      ! Daily Dry-Bulb Temperature Range {deltaC}
  -15.1,                                  ! Humidity Indicating Conditions at Maximum Dry-Bulb {BasedOnField A3}
  98193,                                  ! Barometric Pressure {Pa}
  2.1,                                    ! Wind Speed {m/s}
  220,                                    ! Wind Direction {deg}
  0,                                      ! Sky Clearness
  0,                                      ! Rain Indicator
  0,                                      ! Snow Indicator
  21,                                     ! Day of Month
  1,                                      ! Month
  WinterDesignDay,                        ! Day Type
  0,                                      ! Daylight Saving Time Indicator
  Wetbulb,                                ! Humidity Indicating Type
  ,                                       ! Humidity Indicating Day Schedule Name
  DefaultMultipliers,                     ! Dry-Bulb Temperature Range Modifier Type
  ,                                       ! Dry-Bulb Temperature Range Modifier Schedule Name
  ASHRAEClearSky;                         ! Solar Model Indicator

OS:ComponentData,
  {b270583a-7e47-4aad-906c-db90a7237ba2}, ! Handle
  Component Data 1,                       ! Name
  {589eb0e6-0828-492f-9b7f-6b7e42c94e1b}, ! UUID
  {9118a035-06de-4f73-be47-97bd0109aaf9}, ! Version UUID
  1366307474,                             ! Creation Timestamp
  1366307474,                             ! Version Timestamp
  {41821ace-44bb-455a-8e8b-fefc48a4aa33}; ! Name of Object 1

