
OS:Version,
  {d06dcab4-5fdd-4bf9-85f2-2569ddfb6274}, ! Handle
  0.9.3;                                  ! Version Identifier

OS:SizingPeriod:DesignDay,
  {07757e33-a453-4622-80b2-2b892d20890b}, ! Handle
  Rockford Greater Rockford Ap Ann Clg 1% Condns DB=>MWB, ! Name
  31.4,                                   ! Maximum Dry-Bulb Temperature {C}
  11,                                     ! Daily Dry-Bulb Temperature Range {deltaC}
  23.2,                                   ! Humidity Indicating Conditions at Maximum Dry-Bulb {BasedOnField A3}
  98675,                                  ! Barometric Pressure {Pa}
  5.3,                                    ! Wind Speed {m/s}
  210,                                    ! Wind Direction {deg}
  0,                                      ! Sky Clearness
  0,                                      ! Rain Indicator
  0,                                      ! Snow Indicator
  21,                                     ! Day of Month
  7,                                      ! Month
  SummerDesignDay,                        ! Day Type
  0,                                      ! Daylight Saving Time Indicator
  Wetbulb,                                ! Humidity Indicating Type
  ,                                       ! Humidity Indicating Day Schedule Name
  DefaultMultipliers,                     ! Dry-Bulb Temperature Range Modifier Type
  ,                                       ! Dry-Bulb Temperature Range Modifier Schedule Name
  ASHRAETau,                              ! Solar Model Indicator
  ,                                       ! Beam Solar Day Schedule Name
  ,                                       ! Diffuse Solar Day Schedule Name
  0.445,                                  ! ASHRAE Taub {dimensionless}
  2.082;                                  ! ASHRAE Taud {dimensionless}

OS:ComponentData,
  {2194cfcb-3170-4fe6-917e-21366436335d}, ! Handle
  Component Data 1,                       ! Name
  {1ad24d3c-30e4-4086-9a2c-111ee6427ae7}, ! UUID
  {4876e254-0741-4a5f-82bb-6034ac83dbca}, ! Version UUID
  1366307392,                             ! Creation Timestamp
  1366307392,                             ! Version Timestamp
  {07757e33-a453-4622-80b2-2b892d20890b}; ! Name of Object 1

