
OS:Version,
  {e195961f-181f-475c-8880-b5125822e227}, ! Handle
  0.9.3;                                  ! Version Identifier

OS:SizingPeriod:DesignDay,
  {a360f9f8-18ef-46e7-8d83-985ae110128d}, ! Handle
  Travis Field Afb Ann Clg 1% Condns WB=>MDB, ! Name
  32.4,                                   ! Maximum Dry-Bulb Temperature {C}
  16.4,                                   ! Daily Dry-Bulb Temperature Range {deltaC}
  20.3,                                   ! Humidity Indicating Conditions at Maximum Dry-Bulb {BasedOnField A3}
  101109,                                 ! Barometric Pressure {Pa}
  4.2,                                    ! Wind Speed {m/s}
  240,                                    ! Wind Direction {deg}
  0,                                      ! Sky Clearness
  0,                                      ! Rain Indicator
  0,                                      ! Snow Indicator
  21,                                     ! Day of Month
  7,                                      ! Month
  SummerDesignDay,                        ! Day Type
  0,                                      ! Daylight Saving Time Indicator
  Wetbulb,                                ! Humidity Indicating Type
  ,                                       ! Humidity Indicating Day Schedule Name
  DefaultMultipliers,                     ! Dry-Bulb Temperature Range Modifier Type
  ,                                       ! Dry-Bulb Temperature Range Modifier Schedule Name
  ASHRAETau,                              ! Solar Model Indicator
  ,                                       ! Beam Solar Day Schedule Name
  ,                                       ! Diffuse Solar Day Schedule Name
  0.374,                                  ! ASHRAE Taub {dimensionless}
  2.389;                                  ! ASHRAE Taud {dimensionless}

OS:ComponentData,
  {38c90533-d899-4fda-98e2-d2cd73eee9fc}, ! Handle
  Component Data 1,                       ! Name
  {39db5d88-69b5-49d2-b5e4-eb4fa35fa217}, ! UUID
  {b97f5232-0b2f-445f-a640-b94144c7b0b5}, ! Version UUID
  1366306427,                             ! Creation Timestamp
  1366306427,                             ! Version Timestamp
  {a360f9f8-18ef-46e7-8d83-985ae110128d}; ! Name of Object 1

