
OS:Version,
  {92e25f60-db69-4d93-aefd-470e424f276b}, ! Handle
  0.9.3;                                  ! Version Identifier

OS:SizingPeriod:DesignDay,
  {5a97bd35-0f3d-4a16-af1a-f5bf34cfadd0}, ! Handle
  Sterling Rockfalls Ann Clg .4% Condns DB=>MWB, ! Name
  32.5,                                   ! Maximum Dry-Bulb Temperature {C}
  11.1,                                   ! Daily Dry-Bulb Temperature Range {deltaC}
  23.8,                                   ! Humidity Indicating Conditions at Maximum Dry-Bulb {BasedOnField A3}
  98981,                                  ! Barometric Pressure {Pa}
  3.6,                                    ! Wind Speed {m/s}
  220,                                    ! Wind Direction {deg}
  0,                                      ! Sky Clearness
  0,                                      ! Rain Indicator
  0,                                      ! Snow Indicator
  21,                                     ! Day of Month
  7,                                      ! Month
  SummerDesignDay,                        ! Day Type
  0,                                      ! Daylight Saving Time Indicator
  Wetbulb,                                ! Humidity Indicating Type
  ,                                       ! Humidity Indicating Day Schedule Name
  DefaultMultipliers,                     ! Dry-Bulb Temperature Range Modifier Type
  ,                                       ! Dry-Bulb Temperature Range Modifier Schedule Name
  ASHRAETau,                              ! Solar Model Indicator
  ,                                       ! Beam Solar Day Schedule Name
  ,                                       ! Diffuse Solar Day Schedule Name
  0.443,                                  ! ASHRAE Taub {dimensionless}
  2.098;                                  ! ASHRAE Taud {dimensionless}

OS:ComponentData,
  {6b054b5f-0a31-49ad-ac2c-05f36362cca9}, ! Handle
  Component Data 1,                       ! Name
  {c9e27c2c-7b26-4ab7-a007-833f048f4096}, ! UUID
  {ff1bfa92-2c13-44ca-9b26-d8d23bfa4804}, ! Version UUID
  1366307412,                             ! Creation Timestamp
  1366307412,                             ! Version Timestamp
  {5a97bd35-0f3d-4a16-af1a-f5bf34cfadd0}; ! Name of Object 1

