
OS:Version,
  {cb53eed9-bf87-421e-b16d-1b6eac83912f}, ! Handle
  0.9.3;                                  ! Version Identifier

OS:SizingPeriod:DesignDay,
  {c15f6073-c3ba-4597-a3fd-9a339dfcc646}, ! Handle
  Marion   Wytheville Ann Htg 99.6% Condns DB, ! Name
  -13.7,                                  ! Maximum Dry-Bulb Temperature {C}
  0,                                      ! Daily Dry-Bulb Temperature Range {deltaC}
  -13.7,                                  ! Humidity Indicating Conditions at Maximum Dry-Bulb {BasedOnField A3}
  92299,                                  ! Barometric Pressure {Pa}
  5.3,                                    ! Wind Speed {m/s}
  270,                                    ! Wind Direction {deg}
  0,                                      ! Sky Clearness
  0,                                      ! Rain Indicator
  0,                                      ! Snow Indicator
  21,                                     ! Day of Month
  1,                                      ! Month
  WinterDesignDay,                        ! Day Type
  0,                                      ! Daylight Saving Time Indicator
  Wetbulb,                                ! Humidity Indicating Type
  ,                                       ! Humidity Indicating Day Schedule Name
  DefaultMultipliers,                     ! Dry-Bulb Temperature Range Modifier Type
  ,                                       ! Dry-Bulb Temperature Range Modifier Schedule Name
  ASHRAEClearSky;                         ! Solar Model Indicator

OS:ComponentData,
  {458572ea-9127-4a37-bfd4-d1e2009cb29e}, ! Handle
  Component Data 1,                       ! Name
  {b767c164-6b56-4d32-a312-02c68dac1ef3}, ! UUID
  {66cdd537-7dfd-48be-a418-ac25ed28ccb9}, ! Version UUID
  1366311099,                             ! Creation Timestamp
  1366311099,                             ! Version Timestamp
  {c15f6073-c3ba-4597-a3fd-9a339dfcc646}; ! Name of Object 1

