
OS:Version,
  {ac53e7f6-afc6-4eb1-9ba2-2f0861349b26}, ! Handle
  0.9.3;                                  ! Version Identifier

OS:SizingPeriod:DesignDay,
  {62999c3a-15bf-4d80-8eed-2328666de2c2}, ! Handle
  Point Hope  Awos Ann Clg 1% Condns WB=>MDB, ! Name
  12.9,                                   ! Maximum Dry-Bulb Temperature {C}
  3.2,                                    ! Daily Dry-Bulb Temperature Range {deltaC}
  11,                                     ! Humidity Indicating Conditions at Maximum Dry-Bulb {BasedOnField A3}
  101277,                                 ! Barometric Pressure {Pa}
  4.6,                                    ! Wind Speed {m/s}
  10,                                     ! Wind Direction {deg}
  0,                                      ! Sky Clearness
  0,                                      ! Rain Indicator
  0,                                      ! Snow Indicator
  21,                                     ! Day of Month
  8,                                      ! Month
  SummerDesignDay,                        ! Day Type
  0,                                      ! Daylight Saving Time Indicator
  Wetbulb,                                ! Humidity Indicating Type
  ,                                       ! Humidity Indicating Day Schedule Name
  DefaultMultipliers,                     ! Dry-Bulb Temperature Range Modifier Type
  ,                                       ! Dry-Bulb Temperature Range Modifier Schedule Name
  ASHRAETau,                              ! Solar Model Indicator
  ,                                       ! Beam Solar Day Schedule Name
  ,                                       ! Diffuse Solar Day Schedule Name
  0.392,                                  ! ASHRAE Taub {dimensionless}
  2.093;                                  ! ASHRAE Taud {dimensionless}

OS:ComponentData,
  {7d8a681f-701d-419b-8434-c5d1fcd7eb8a}, ! Handle
  Component Data 1,                       ! Name
  {98a000b5-441f-4bca-a292-b6d7217c05df}, ! UUID
  {4b2f88da-b663-47bd-986b-ec91d5289ff1}, ! Version UUID
  1366305492,                             ! Creation Timestamp
  1366305492,                             ! Version Timestamp
  {62999c3a-15bf-4d80-8eed-2328666de2c2}; ! Name of Object 1

