
OS:Version,
  {b0ad54d2-b8a0-47f1-a651-5e315bc17300}, ! Handle
  0.9.3;                                  ! Version Identifier

OS:SizingPeriod:DesignDay,
  {da68b174-6a21-4057-8604-fa32b2080f5f}, ! Handle
  Valdez Wso Ann Clg .4% Condns WB=>MDB,  ! Name
  19.6,                                   ! Maximum Dry-Bulb Temperature {C}
  6.9,                                    ! Daily Dry-Bulb Temperature Range {deltaC}
  14.7,                                   ! Humidity Indicating Conditions at Maximum Dry-Bulb {BasedOnField A3}
  101241,                                 ! Barometric Pressure {Pa}
  4.2,                                    ! Wind Speed {m/s}
  240,                                    ! Wind Direction {deg}
  0,                                      ! Sky Clearness
  0,                                      ! Rain Indicator
  0,                                      ! Snow Indicator
  21,                                     ! Day of Month
  7,                                      ! Month
  SummerDesignDay,                        ! Day Type
  0,                                      ! Daylight Saving Time Indicator
  Wetbulb,                                ! Humidity Indicating Type
  ,                                       ! Humidity Indicating Day Schedule Name
  DefaultMultipliers,                     ! Dry-Bulb Temperature Range Modifier Type
  ,                                       ! Dry-Bulb Temperature Range Modifier Schedule Name
  ASHRAETau,                              ! Solar Model Indicator
  ,                                       ! Beam Solar Day Schedule Name
  ,                                       ! Diffuse Solar Day Schedule Name
  0.407,                                  ! ASHRAE Taub {dimensionless}
  2.026;                                  ! ASHRAE Taud {dimensionless}

OS:ComponentData,
  {5a0cbcd0-b29b-44c1-8f83-f60d93a68bbe}, ! Handle
  Component Data 1,                       ! Name
  {87b82aa0-d4bf-47b8-94ec-7415fcac4f5a}, ! UUID
  {fff7ecd8-6b80-4089-848d-134ef159bd7d}, ! Version UUID
  1366305607,                             ! Creation Timestamp
  1366305607,                             ! Version Timestamp
  {da68b174-6a21-4057-8604-fa32b2080f5f}; ! Name of Object 1

