
OS:Version,
  {eea38027-29cd-4f48-ae07-b3f9fafd2a87}, ! Handle
  0.9.3;                                  ! Version Identifier

OS:SizingPeriod:DesignDay,
  {dd79dccc-11cc-4947-99df-9cc4ba3fc581}, ! Handle
  Meridian Key Field Ann Clg .4% Condns DB=>MWB, ! Name
  35.4,                                   ! Maximum Dry-Bulb Temperature {C}
  11.4,                                   ! Daily Dry-Bulb Temperature Range {deltaC}
  24.6,                                   ! Humidity Indicating Conditions at Maximum Dry-Bulb {BasedOnField A3}
  100248,                                 ! Barometric Pressure {Pa}
  3.2,                                    ! Wind Speed {m/s}
  0,                                      ! Wind Direction {deg}
  0,                                      ! Sky Clearness
  0,                                      ! Rain Indicator
  0,                                      ! Snow Indicator
  21,                                     ! Day of Month
  7,                                      ! Month
  SummerDesignDay,                        ! Day Type
  0,                                      ! Daylight Saving Time Indicator
  Wetbulb,                                ! Humidity Indicating Type
  ,                                       ! Humidity Indicating Day Schedule Name
  DefaultMultipliers,                     ! Dry-Bulb Temperature Range Modifier Type
  ,                                       ! Dry-Bulb Temperature Range Modifier Schedule Name
  ASHRAETau,                              ! Solar Model Indicator
  ,                                       ! Beam Solar Day Schedule Name
  ,                                       ! Diffuse Solar Day Schedule Name
  0.552,                                  ! ASHRAE Taub {dimensionless}
  1.818;                                  ! ASHRAE Taud {dimensionless}

OS:ComponentData,
  {da8e593d-b0ac-4bd4-b573-7db434295fe9}, ! Handle
  Component Data 1,                       ! Name
  {432ded0b-ba3f-4429-af24-32a3a81f6a64}, ! UUID
  {a2cced91-934c-4b42-86d2-7b7a6f793823}, ! Version UUID
  1366308667,                             ! Creation Timestamp
  1366308667,                             ! Version Timestamp
  {dd79dccc-11cc-4947-99df-9cc4ba3fc581}; ! Name of Object 1

