
OS:Version,
  {89deb6d8-3c2e-4d84-9656-ff53edbee4c1}, ! Handle
  0.9.3;                                  ! Version Identifier

OS:SizingPeriod:DesignDay,
  {77ad7904-b9b5-455b-88bd-d80129c38030}, ! Handle
  MASSENA Ann Clg .4% Condns WB=>MDB,     ! Name
  28.9,                                   ! Maximum Dry-Bulb Temperature {C}
  11.7,                                   ! Daily Dry-Bulb Temperature Range {deltaC}
  24,                                     ! Humidity Indicating Conditions at Maximum Dry-Bulb {BasedOnField A3}
  100570,                                 ! Barometric Pressure {Pa}
  4.7,                                    ! Wind Speed {m/s}
  240,                                    ! Wind Direction {deg}
  0,                                      ! Sky Clearness
  0,                                      ! Rain Indicator
  0,                                      ! Snow Indicator
  21,                                     ! Day of Month
  7,                                      ! Month
  SummerDesignDay,                        ! Day Type
  0,                                      ! Daylight Saving Time Indicator
  Wetbulb,                                ! Humidity Indicating Type
  ,                                       ! Humidity Indicating Day Schedule Name
  DefaultMultipliers,                     ! Dry-Bulb Temperature Range Modifier Type
  ,                                       ! Dry-Bulb Temperature Range Modifier Schedule Name
  ASHRAETau,                              ! Solar Model Indicator
  ,                                       ! Beam Solar Day Schedule Name
  ,                                       ! Diffuse Solar Day Schedule Name
  0.454,                                  ! ASHRAE Taub {dimensionless}
  2.024;                                  ! ASHRAE Taud {dimensionless}

OS:ComponentData,
  {052aa501-55cb-46b7-b720-bfa227bd46d2}, ! Handle
  Component Data 1,                       ! Name
  {4ee2be4f-618f-4cd9-8772-700907dd7223}, ! UUID
  {0cdb2451-1b46-4bac-b9d2-7bcf08982485}, ! Version UUID
  1366309646,                             ! Creation Timestamp
  1366309646,                             ! Version Timestamp
  {77ad7904-b9b5-455b-88bd-d80129c38030}; ! Name of Object 1

