
OS:Version,
  {6303109d-5436-403c-b00d-59b5eb76ef77}, ! Handle
  0.9.3;                                  ! Version Identifier

OS:SizingPeriod:DesignDay,
  {525a77f8-8cb4-4932-8773-2502ca3ed28f}, ! Handle
  Red Bluff Ann Htg Wind 99.6% Condns WS=>MCDB, ! Name
  11.3,                                   ! Maximum Dry-Bulb Temperature {C}
  0,                                      ! Daily Dry-Bulb Temperature Range {deltaC}
  11.3,                                   ! Humidity Indicating Conditions at Maximum Dry-Bulb {BasedOnField A3}
  100058,                                 ! Barometric Pressure {Pa}
  15.6,                                   ! Wind Speed {m/s}
  320,                                    ! Wind Direction {deg}
  0,                                      ! Sky Clearness
  0,                                      ! Rain Indicator
  0,                                      ! Snow Indicator
  21,                                     ! Day of Month
  12,                                     ! Month
  WinterDesignDay,                        ! Day Type
  0,                                      ! Daylight Saving Time Indicator
  Wetbulb,                                ! Humidity Indicating Type
  ,                                       ! Humidity Indicating Day Schedule Name
  DefaultMultipliers,                     ! Dry-Bulb Temperature Range Modifier Type
  ,                                       ! Dry-Bulb Temperature Range Modifier Schedule Name
  ASHRAEClearSky;                         ! Solar Model Indicator

OS:ComponentData,
  {7469b584-5084-4a10-8024-c268d710b46a}, ! Handle
  Component Data 1,                       ! Name
  {46b6c6a8-0a4d-46c7-9278-5dedf5c2269a}, ! UUID
  {33d1bd6b-5584-4c39-9f12-b3632c2f516c}, ! Version UUID
  1366306543,                             ! Creation Timestamp
  1366306543,                             ! Version Timestamp
  {525a77f8-8cb4-4932-8773-2502ca3ed28f}; ! Name of Object 1

