
OS:Version,
  {3436516f-454e-4072-89e1-502351810d09}, ! Handle
  0.9.3;                                  ! Version Identifier

OS:SizingPeriod:DesignDay,
  {28e7049c-69eb-44c2-965a-f41871fce433}, ! Handle
  Rome R B Russell Ap Ann Htg Wind 99% Condns WS=>MCDB, ! Name
  7.2,                                    ! Maximum Dry-Bulb Temperature {C}
  0,                                      ! Daily Dry-Bulb Temperature Range {deltaC}
  7.2,                                    ! Humidity Indicating Conditions at Maximum Dry-Bulb {BasedOnField A3}
  99004,                                  ! Barometric Pressure {Pa}
  7.1,                                    ! Wind Speed {m/s}
  350,                                    ! Wind Direction {deg}
  0,                                      ! Sky Clearness
  0,                                      ! Rain Indicator
  0,                                      ! Snow Indicator
  21,                                     ! Day of Month
  1,                                      ! Month
  WinterDesignDay,                        ! Day Type
  0,                                      ! Daylight Saving Time Indicator
  Wetbulb,                                ! Humidity Indicating Type
  ,                                       ! Humidity Indicating Day Schedule Name
  DefaultMultipliers,                     ! Dry-Bulb Temperature Range Modifier Type
  ,                                       ! Dry-Bulb Temperature Range Modifier Schedule Name
  ASHRAEClearSky;                         ! Solar Model Indicator

OS:ComponentData,
  {2192e08d-9851-42ea-85c1-ed3da67ae897}, ! Handle
  Component Data 1,                       ! Name
  {86da774d-c491-4416-a69c-4fd9edd31288}, ! UUID
  {9d8de5d9-cc76-462c-816d-8b49debfe2b8}, ! Version UUID
  1366307035,                             ! Creation Timestamp
  1366307035,                             ! Version Timestamp
  {28e7049c-69eb-44c2-965a-f41871fce433}; ! Name of Object 1

