
OS:Version,
  {3719ac7a-2174-4a20-8c3c-9d4813580972}, ! Handle
  0.9.3;                                  ! Version Identifier

OS:SizingPeriod:DesignDay,
  {faa1a02c-b239-4b17-8655-e36feea7574c}, ! Handle
  Trenton Mercer County Ap Ann Clg .4% Condns WB=>MDB, ! Name
  31.6,                                   ! Maximum Dry-Bulb Temperature {C}
  10.5,                                   ! Daily Dry-Bulb Temperature Range {deltaC}
  25.3,                                   ! Humidity Indicating Conditions at Maximum Dry-Bulb {BasedOnField A3}
  100547,                                 ! Barometric Pressure {Pa}
  4.7,                                    ! Wind Speed {m/s}
  250,                                    ! Wind Direction {deg}
  0,                                      ! Sky Clearness
  0,                                      ! Rain Indicator
  0,                                      ! Snow Indicator
  21,                                     ! Day of Month
  7,                                      ! Month
  SummerDesignDay,                        ! Day Type
  0,                                      ! Daylight Saving Time Indicator
  Wetbulb,                                ! Humidity Indicating Type
  ,                                       ! Humidity Indicating Day Schedule Name
  DefaultMultipliers,                     ! Dry-Bulb Temperature Range Modifier Type
  ,                                       ! Dry-Bulb Temperature Range Modifier Schedule Name
  ASHRAETau,                              ! Solar Model Indicator
  ,                                       ! Beam Solar Day Schedule Name
  ,                                       ! Diffuse Solar Day Schedule Name
  0.527,                                  ! ASHRAE Taub {dimensionless}
  1.83;                                   ! ASHRAE Taud {dimensionless}

OS:ComponentData,
  {ef43ecaa-38b9-4be5-ad44-8c0426987e4f}, ! Handle
  Component Data 1,                       ! Name
  {ea15f476-c750-49a7-9c0d-b3ee3fd7c225}, ! UUID
  {cb68047b-f854-432e-a9da-1172cdca4f33}, ! Version UUID
  1366309351,                             ! Creation Timestamp
  1366309351,                             ! Version Timestamp
  {faa1a02c-b239-4b17-8655-e36feea7574c}; ! Name of Object 1

