
OS:Version,
  {8963a326-05d9-48b6-823e-3b8f019606b4}, ! Handle
  0.9.3;                                  ! Version Identifier

OS:SizingPeriod:DesignDay,
  {0db4362c-2127-4b01-8490-7f073726900c}, ! Handle
  NORFOLK Ann Clg 2% Condns DB=>MWB,      ! Name
  31.5,                                   ! Maximum Dry-Bulb Temperature {C}
  11.9,                                   ! Daily Dry-Bulb Temperature Range {deltaC}
  22.2,                                   ! Humidity Indicating Conditions at Maximum Dry-Bulb {BasedOnField A3}
  95793,                                  ! Barometric Pressure {Pa}
  6.5,                                    ! Wind Speed {m/s}
  190,                                    ! Wind Direction {deg}
  0,                                      ! Sky Clearness
  0,                                      ! Rain Indicator
  0,                                      ! Snow Indicator
  21,                                     ! Day of Month
  7,                                      ! Month
  SummerDesignDay,                        ! Day Type
  0,                                      ! Daylight Saving Time Indicator
  Wetbulb,                                ! Humidity Indicating Type
  ,                                       ! Humidity Indicating Day Schedule Name
  DefaultMultipliers,                     ! Dry-Bulb Temperature Range Modifier Type
  ,                                       ! Dry-Bulb Temperature Range Modifier Schedule Name
  ASHRAETau,                              ! Solar Model Indicator
  ,                                       ! Beam Solar Day Schedule Name
  ,                                       ! Diffuse Solar Day Schedule Name
  0.402,                                  ! ASHRAE Taub {dimensionless}
  2.247;                                  ! ASHRAE Taud {dimensionless}

OS:ComponentData,
  {c5ef41e5-102d-4ec0-afb9-4b12f767671e}, ! Handle
  Component Data 1,                       ! Name
  {80bf83c6-630d-458a-b581-a4a7fde1c353}, ! UUID
  {13fad582-5f7c-4d91-9f03-77285c545149}, ! Version UUID
  1366309153,                             ! Creation Timestamp
  1366309153,                             ! Version Timestamp
  {0db4362c-2127-4b01-8490-7f073726900c}; ! Name of Object 1

