
OS:Version,
  {8f65c6ce-25f4-4588-8fba-084cd7211172}, ! Handle
  0.9.3;                                  ! Version Identifier

OS:SizingPeriod:DesignDay,
  {76fd428a-22f5-4474-89c5-0145670fd541}, ! Handle
  Rapid City Ann Hum_n 99.6% Condns DP=>MCDB, ! Name
  -22.8,                                  ! Maximum Dry-Bulb Temperature {C}
  0,                                      ! Daily Dry-Bulb Temperature Range {deltaC}
  -28.3,                                  ! Humidity Indicating Conditions at Maximum Dry-Bulb {BasedOnField A3}
  90246,                                  ! Barometric Pressure {Pa}
  3.6,                                    ! Wind Speed {m/s}
  0,                                      ! Wind Direction {deg}
  0,                                      ! Sky Clearness
  0,                                      ! Rain Indicator
  0,                                      ! Snow Indicator
  21,                                     ! Day of Month
  1,                                      ! Month
  WinterDesignDay,                        ! Day Type
  0,                                      ! Daylight Saving Time Indicator
  Dewpoint,                               ! Humidity Indicating Type
  ,                                       ! Humidity Indicating Day Schedule Name
  DefaultMultipliers,                     ! Dry-Bulb Temperature Range Modifier Type
  ,                                       ! Dry-Bulb Temperature Range Modifier Schedule Name
  ASHRAEClearSky;                         ! Solar Model Indicator

OS:ComponentData,
  {c204edba-20f9-43bc-8247-a3032ea9412f}, ! Handle
  Component Data 1,                       ! Name
  {49d2ddac-3324-42fc-82ba-037b8c7c1f25}, ! UUID
  {c061af8f-8c49-4751-b644-23927555b058}, ! Version UUID
  1366310445,                             ! Creation Timestamp
  1366310445,                             ! Version Timestamp
  {76fd428a-22f5-4474-89c5-0145670fd541}; ! Name of Object 1

