
OS:Version,
  {2fb76a8a-0d44-4f91-86b3-a714b22c7fad}, ! Handle
  0.9.3;                                  ! Version Identifier

OS:SizingPeriod:DesignDay,
  {5b95eb82-e317-46a6-b7aa-06d0c9a02cd2}, ! Handle
  Walla Walla City County Ap Ann Clg 2% Condns DP=>MDB, ! Name
  22.6,                                   ! Maximum Dry-Bulb Temperature {C}
  15.1,                                   ! Daily Dry-Bulb Temperature Range {deltaC}
  13.5,                                   ! Humidity Indicating Conditions at Maximum Dry-Bulb {BasedOnField A3}
  97132,                                  ! Barometric Pressure {Pa}
  3.8,                                    ! Wind Speed {m/s}
  240,                                    ! Wind Direction {deg}
  0,                                      ! Sky Clearness
  0,                                      ! Rain Indicator
  0,                                      ! Snow Indicator
  21,                                     ! Day of Month
  7,                                      ! Month
  SummerDesignDay,                        ! Day Type
  0,                                      ! Daylight Saving Time Indicator
  Dewpoint,                               ! Humidity Indicating Type
  ,                                       ! Humidity Indicating Day Schedule Name
  DefaultMultipliers,                     ! Dry-Bulb Temperature Range Modifier Type
  ,                                       ! Dry-Bulb Temperature Range Modifier Schedule Name
  ASHRAETau,                              ! Solar Model Indicator
  ,                                       ! Beam Solar Day Schedule Name
  ,                                       ! Diffuse Solar Day Schedule Name
  0.389,                                  ! ASHRAE Taub {dimensionless}
  2.256;                                  ! ASHRAE Taud {dimensionless}

OS:ComponentData,
  {823cba4b-100c-4326-9bff-8b454e3dfe9e}, ! Handle
  Component Data 1,                       ! Name
  {5efb9f8d-2cc7-432f-a5ee-659da344ecb2}, ! UUID
  {67bc9ec5-7f09-45ff-a166-202a32d9a4c2}, ! Version UUID
  1366311422,                             ! Creation Timestamp
  1366311422,                             ! Version Timestamp
  {5b95eb82-e317-46a6-b7aa-06d0c9a02cd2}; ! Name of Object 1

