
OS:Version,
  {ad0ac7d7-8e01-4387-9486-993756d91247}, ! Handle
  0.9.3;                                  ! Version Identifier

OS:SizingPeriod:DesignDay,
  {d866a81b-0f58-48f1-bdb3-b8f9350c3f36}, ! Handle
  Walla Walla City County Ap Ann Clg 2% Condns DP=>MDB, ! Name
  22.6,                                   ! Maximum Dry-Bulb Temperature {C}
  15.1,                                   ! Daily Dry-Bulb Temperature Range {deltaC}
  13.5,                                   ! Humidity Indicating Conditions at Maximum Dry-Bulb {BasedOnField A3}
  97132,                                  ! Barometric Pressure {Pa}
  3.8,                                    ! Wind Speed {m/s}
  240,                                    ! Wind Direction {deg}
  0,                                      ! Sky Clearness
  0,                                      ! Rain Indicator
  0,                                      ! Snow Indicator
  21,                                     ! Day of Month
  7,                                      ! Month
  SummerDesignDay,                        ! Day Type
  0,                                      ! Daylight Saving Time Indicator
  Dewpoint,                               ! Humidity Indicating Type
  ,                                       ! Humidity Indicating Day Schedule Name
  DefaultMultipliers,                     ! Dry-Bulb Temperature Range Modifier Type
  ,                                       ! Dry-Bulb Temperature Range Modifier Schedule Name
  ASHRAETau,                              ! Solar Model Indicator
  ,                                       ! Beam Solar Day Schedule Name
  ,                                       ! Diffuse Solar Day Schedule Name
  0.389,                                  ! ASHRAE Taub {dimensionless}
  2.256;                                  ! ASHRAE Taud {dimensionless}

