
OS:Version,
  {e3b1b588-0639-4066-9149-51fb1e4d36d4}, ! Handle
  0.9.3;                                  ! Version Identifier

OS:SizingPeriod:DesignDay,
  {b00b846b-08c6-4270-bb07-4d710a074bd0}, ! Handle
  St Louis/Int'l Airport Ann Htg 99% Condns DB, ! Name
  -12.1,                                  ! Maximum Dry-Bulb Temperature {C}
  0,                                      ! Daily Dry-Bulb Temperature Range {deltaC}
  -12.1,                                  ! Humidity Indicating Conditions at Maximum Dry-Bulb {BasedOnField A3}
  99276,                                  ! Barometric Pressure {Pa}
  4.7,                                    ! Wind Speed {m/s}
  300,                                    ! Wind Direction {deg}
  0,                                      ! Sky Clearness
  0,                                      ! Rain Indicator
  0,                                      ! Snow Indicator
  21,                                     ! Day of Month
  1,                                      ! Month
  WinterDesignDay,                        ! Day Type
  0,                                      ! Daylight Saving Time Indicator
  Wetbulb,                                ! Humidity Indicating Type
  ,                                       ! Humidity Indicating Day Schedule Name
  DefaultMultipliers,                     ! Dry-Bulb Temperature Range Modifier Type
  ,                                       ! Dry-Bulb Temperature Range Modifier Schedule Name
  ASHRAEClearSky;                         ! Solar Model Indicator

OS:ComponentData,
  {fb4dac68-2b68-489b-9523-3e852207dc5c}, ! Handle
  Component Data 1,                       ! Name
  {70ac0d48-2f5d-4df4-b1f3-3777ab8dfec7}, ! UUID
  {a6b0c7dd-021b-4af2-8da6-6b79b5d8dda0}, ! Version UUID
  1366308577,                             ! Creation Timestamp
  1366308577,                             ! Version Timestamp
  {b00b846b-08c6-4270-bb07-4d710a074bd0}; ! Name of Object 1

