
OS:Version,
  {9d4ab407-0efd-4c6a-9a9d-9af8fe4d8d3d}, ! Handle
  0.9.3;                                  ! Version Identifier

OS:SizingPeriod:DesignDay,
  {af09f15e-4dda-4733-a78b-56d5cbc8d528}, ! Handle
  Reno Tahoe International Ap Ann Clg 2% Condns Enth=>MDB, ! Name
  30.2,                                   ! Maximum Dry-Bulb Temperature {C}
  18.8,                                   ! Daily Dry-Bulb Temperature Range {deltaC}
  49700,                                  ! Humidity Indicating Conditions at Maximum Dry-Bulb {BasedOnField A3}
  86208,                                  ! Barometric Pressure {Pa}
  4.5,                                    ! Wind Speed {m/s}
  270,                                    ! Wind Direction {deg}
  0,                                      ! Sky Clearness
  0,                                      ! Rain Indicator
  0,                                      ! Snow Indicator
  21,                                     ! Day of Month
  7,                                      ! Month
  SummerDesignDay,                        ! Day Type
  0,                                      ! Daylight Saving Time Indicator
  Enthalpy,                               ! Humidity Indicating Type
  ,                                       ! Humidity Indicating Day Schedule Name
  DefaultMultipliers,                     ! Dry-Bulb Temperature Range Modifier Type
  ,                                       ! Dry-Bulb Temperature Range Modifier Schedule Name
  ASHRAETau,                              ! Solar Model Indicator
  ,                                       ! Beam Solar Day Schedule Name
  ,                                       ! Diffuse Solar Day Schedule Name
  0.398,                                  ! ASHRAE Taub {dimensionless}
  2.123;                                  ! ASHRAE Taud {dimensionless}

