
OS:Version,
  {4ef8ebf8-a329-4c1c-a5c9-371e277554b9}, ! Handle
  0.9.3;                                  ! Version Identifier

OS:SizingPeriod:DesignDay,
  {1fd0ddde-9a2d-4a46-8942-653813c6921d}, ! Handle
  Redwood Falls Muni Ann Clg .4% Condns WB=>MDB, ! Name
  31,                                     ! Maximum Dry-Bulb Temperature {C}
  11.4,                                   ! Daily Dry-Bulb Temperature Range {deltaC}
  25.5,                                   ! Humidity Indicating Conditions at Maximum Dry-Bulb {BasedOnField A3}
  97633,                                  ! Barometric Pressure {Pa}
  6.3,                                    ! Wind Speed {m/s}
  180,                                    ! Wind Direction {deg}
  0,                                      ! Sky Clearness
  0,                                      ! Rain Indicator
  0,                                      ! Snow Indicator
  21,                                     ! Day of Month
  7,                                      ! Month
  SummerDesignDay,                        ! Day Type
  0,                                      ! Daylight Saving Time Indicator
  Wetbulb,                                ! Humidity Indicating Type
  ,                                       ! Humidity Indicating Day Schedule Name
  DefaultMultipliers,                     ! Dry-Bulb Temperature Range Modifier Type
  ,                                       ! Dry-Bulb Temperature Range Modifier Schedule Name
  ASHRAETau,                              ! Solar Model Indicator
  ,                                       ! Beam Solar Day Schedule Name
  ,                                       ! Diffuse Solar Day Schedule Name
  0.402,                                  ! ASHRAE Taub {dimensionless}
  2.246;                                  ! ASHRAE Taud {dimensionless}

OS:ComponentData,
  {883b53d4-dbb9-4754-afb3-658e14b03fac}, ! Handle
  Component Data 1,                       ! Name
  {318faa20-4b42-4d9f-8956-418a538c46eb}, ! UUID
  {285c0452-f4cb-44cb-aad8-8e59d5114414}, ! Version UUID
  1366308381,                             ! Creation Timestamp
  1366308381,                             ! Version Timestamp
  {1fd0ddde-9a2d-4a46-8942-653813c6921d}; ! Name of Object 1

