
OS:Version,
  {554a559d-4b1f-45d1-9534-03277a66440a}, ! Handle
  0.9.3;                                  ! Version Identifier

OS:SizingPeriod:DesignDay,
  {5835a3e9-ab51-4b12-83e5-3480ca991d91}, ! Handle
  Orlando Intl Arpt Ann Htg Wind 99% Condns WS=>MCDB, ! Name
  18,                                     ! Maximum Dry-Bulb Temperature {C}
  0,                                      ! Daily Dry-Bulb Temperature Range {deltaC}
  18,                                     ! Humidity Indicating Conditions at Maximum Dry-Bulb {BasedOnField A3}
  100977,                                 ! Barometric Pressure {Pa}
  9.2,                                    ! Wind Speed {m/s}
  340,                                    ! Wind Direction {deg}
  0,                                      ! Sky Clearness
  0,                                      ! Rain Indicator
  0,                                      ! Snow Indicator
  21,                                     ! Day of Month
  1,                                      ! Month
  WinterDesignDay,                        ! Day Type
  0,                                      ! Daylight Saving Time Indicator
  Wetbulb,                                ! Humidity Indicating Type
  ,                                       ! Humidity Indicating Day Schedule Name
  DefaultMultipliers,                     ! Dry-Bulb Temperature Range Modifier Type
  ,                                       ! Dry-Bulb Temperature Range Modifier Schedule Name
  ASHRAEClearSky;                         ! Solar Model Indicator

OS:ComponentData,
  {894ba85b-a509-4da6-bb9e-e499cbb4e4f0}, ! Handle
  Component Data 1,                       ! Name
  {f9494a7c-acda-437a-8572-b749c17cb897}, ! UUID
  {9fec91ca-768a-45b3-bda4-c6a243b0dbde}, ! Version UUID
  1366306895,                             ! Creation Timestamp
  1366306895,                             ! Version Timestamp
  {5835a3e9-ab51-4b12-83e5-3480ca991d91}; ! Name of Object 1

