
OS:Version,
  {61fb197e-c609-46dd-abd8-4914ea52801b}, ! Handle
  0.9.3;                                  ! Version Identifier

OS:SizingPeriod:DesignDay,
  {666fd762-b182-476c-9474-155d8486fa52}, ! Handle
  Wausau Municipal Arpt Ann Htg 99.6% Condns DB, ! Name
  -25.3,                                  ! Maximum Dry-Bulb Temperature {C}
  0,                                      ! Daily Dry-Bulb Temperature Range {deltaC}
  -25.3,                                  ! Humidity Indicating Conditions at Maximum Dry-Bulb {BasedOnField A3}
  97005,                                  ! Barometric Pressure {Pa}
  3,                                      ! Wind Speed {m/s}
  300,                                    ! Wind Direction {deg}
  0,                                      ! Sky Clearness
  0,                                      ! Rain Indicator
  0,                                      ! Snow Indicator
  21,                                     ! Day of Month
  1,                                      ! Month
  WinterDesignDay,                        ! Day Type
  0,                                      ! Daylight Saving Time Indicator
  Wetbulb,                                ! Humidity Indicating Type
  ,                                       ! Humidity Indicating Day Schedule Name
  DefaultMultipliers,                     ! Dry-Bulb Temperature Range Modifier Type
  ,                                       ! Dry-Bulb Temperature Range Modifier Schedule Name
  ASHRAEClearSky;                         ! Solar Model Indicator

OS:ComponentData,
  {96bb6419-55db-4426-9864-1cb7f34a7605}, ! Handle
  Component Data 1,                       ! Name
  {0c8fd069-380f-443e-a327-ee0665262557}, ! UUID
  {033ede32-4f25-4736-8951-fc4eafd28c34}, ! Version UUID
  1366311596,                             ! Creation Timestamp
  1366311596,                             ! Version Timestamp
  {666fd762-b182-476c-9474-155d8486fa52}; ! Name of Object 1

