
OS:Version,
  {3335ab3d-f494-4f4c-9833-b76756376afa}, ! Handle
  0.9.3;                                  ! Version Identifier

OS:SizingPeriod:DesignDay,
  {16574ddd-a112-4d9f-83c7-f2b359ddab06}, ! Handle
  Memphis Ann Clg 2% Condns WB=>MDB,      ! Name
  31.4,                                   ! Maximum Dry-Bulb Temperature {C}
  9.2,                                    ! Daily Dry-Bulb Temperature Range {deltaC}
  25.7,                                   ! Humidity Indicating Conditions at Maximum Dry-Bulb {BasedOnField A3}
  100284,                                 ! Barometric Pressure {Pa}
  3.8,                                    ! Wind Speed {m/s}
  240,                                    ! Wind Direction {deg}
  0,                                      ! Sky Clearness
  0,                                      ! Rain Indicator
  0,                                      ! Snow Indicator
  21,                                     ! Day of Month
  7,                                      ! Month
  SummerDesignDay,                        ! Day Type
  0,                                      ! Daylight Saving Time Indicator
  Wetbulb,                                ! Humidity Indicating Type
  ,                                       ! Humidity Indicating Day Schedule Name
  DefaultMultipliers,                     ! Dry-Bulb Temperature Range Modifier Type
  ,                                       ! Dry-Bulb Temperature Range Modifier Schedule Name
  ASHRAETau,                              ! Solar Model Indicator
  ,                                       ! Beam Solar Day Schedule Name
  ,                                       ! Diffuse Solar Day Schedule Name
  0.512,                                  ! ASHRAE Taub {dimensionless}
  1.892;                                  ! ASHRAE Taud {dimensionless}

OS:ComponentData,
  {c6a2cb26-b46e-4f05-bf48-9eef68363082}, ! Handle
  Component Data 1,                       ! Name
  {bcc1c8b5-7c8c-496c-9ecc-a55ef9ee8bd1}, ! UUID
  {90a81b86-c708-48f8-9162-c17028633161}, ! Version UUID
  1366310526,                             ! Creation Timestamp
  1366310526,                             ! Version Timestamp
  {16574ddd-a112-4d9f-83c7-f2b359ddab06}; ! Name of Object 1

