
OS:Version,
  {32409964-9dab-48d8-b654-e04e8f552c9a}, ! Handle
  0.9.3;                                  ! Version Identifier

OS:SizingPeriod:DesignDay,
  {fcee0354-e464-4aa7-9e90-ef540bd02ac5}, ! Handle
  Patuxent River NAS Ann Htg Wind 99% Condns WS=>MCDB, ! Name
  -0.7,                                   ! Maximum Dry-Bulb Temperature {C}
  0,                                      ! Daily Dry-Bulb Temperature Range {deltaC}
  -0.7,                                   ! Humidity Indicating Conditions at Maximum Dry-Bulb {BasedOnField A3}
  101157,                                 ! Barometric Pressure {Pa}
  11,                                     ! Wind Speed {m/s}
  350,                                    ! Wind Direction {deg}
  0,                                      ! Sky Clearness
  0,                                      ! Rain Indicator
  0,                                      ! Snow Indicator
  21,                                     ! Day of Month
  1,                                      ! Month
  WinterDesignDay,                        ! Day Type
  0,                                      ! Daylight Saving Time Indicator
  Wetbulb,                                ! Humidity Indicating Type
  ,                                       ! Humidity Indicating Day Schedule Name
  DefaultMultipliers,                     ! Dry-Bulb Temperature Range Modifier Type
  ,                                       ! Dry-Bulb Temperature Range Modifier Schedule Name
  ASHRAEClearSky;                         ! Solar Model Indicator

OS:ComponentData,
  {ee0a4824-35ad-4f80-8364-9cf33f48b0a2}, ! Handle
  Component Data 1,                       ! Name
  {1fb9e4f5-72f4-4299-a91c-ed4a08aa9c3c}, ! UUID
  {372c5ac3-098a-43ff-a8c1-0f447d7c4d6c}, ! Version UUID
  1366307853,                             ! Creation Timestamp
  1366307853,                             ! Version Timestamp
  {fcee0354-e464-4aa7-9e90-ef540bd02ac5}; ! Name of Object 1

