
OS:Version,
  {431332b8-9c13-49d9-8483-04a20033e056}, ! Handle
  0.9.3;                                  ! Version Identifier

OS:SizingPeriod:DesignDay,
  {bd71b53d-26d0-4078-afee-09250db76765}, ! Handle
  Richmond Ann Clg .4% Condns DP=>MDB,    ! Name
  28.5,                                   ! Maximum Dry-Bulb Temperature {C}
  10.4,                                   ! Daily Dry-Bulb Temperature Range {deltaC}
  24.4,                                   ! Humidity Indicating Conditions at Maximum Dry-Bulb {BasedOnField A3}
  100678,                                 ! Barometric Pressure {Pa}
  4.5,                                    ! Wind Speed {m/s}
  230,                                    ! Wind Direction {deg}
  0,                                      ! Sky Clearness
  0,                                      ! Rain Indicator
  0,                                      ! Snow Indicator
  21,                                     ! Day of Month
  7,                                      ! Month
  SummerDesignDay,                        ! Day Type
  0,                                      ! Daylight Saving Time Indicator
  Dewpoint,                               ! Humidity Indicating Type
  ,                                       ! Humidity Indicating Day Schedule Name
  DefaultMultipliers,                     ! Dry-Bulb Temperature Range Modifier Type
  ,                                       ! Dry-Bulb Temperature Range Modifier Schedule Name
  ASHRAETau,                              ! Solar Model Indicator
  ,                                       ! Beam Solar Day Schedule Name
  ,                                       ! Diffuse Solar Day Schedule Name
  0.567,                                  ! ASHRAE Taub {dimensionless}
  1.742;                                  ! ASHRAE Taud {dimensionless}

OS:ComponentData,
  {edbdb56c-6b90-4088-8517-299e54f2fd6c}, ! Handle
  Component Data 1,                       ! Name
  {1f40853a-e30c-40ec-8fe1-505fe2f00fd0}, ! UUID
  {5fc65f55-8284-4505-a250-a313e6253157}, ! Version UUID
  1366311170,                             ! Creation Timestamp
  1366311170,                             ! Version Timestamp
  {bd71b53d-26d0-4078-afee-09250db76765}; ! Name of Object 1

