
OS:Version,
  {dc641d06-a4d0-4506-b3de-212b7ee31fdd}, ! Handle
  0.9.3;                                  ! Version Identifier

OS:SizingPeriod:DesignDay,
  {5e2dbf5b-30b5-4674-86b1-959723e46f02}, ! Handle
  Salem Ann Htg Wind 99.6% Condns WS=>MCDB, ! Name
  9.9,                                    ! Maximum Dry-Bulb Temperature {C}
  0,                                      ! Daily Dry-Bulb Temperature Range {deltaC}
  9.9,                                    ! Humidity Indicating Conditions at Maximum Dry-Bulb {BasedOnField A3}
  100594,                                 ! Barometric Pressure {Pa}
  12.6,                                   ! Wind Speed {m/s}
  0,                                      ! Wind Direction {deg}
  0,                                      ! Sky Clearness
  0,                                      ! Rain Indicator
  0,                                      ! Snow Indicator
  21,                                     ! Day of Month
  12,                                     ! Month
  WinterDesignDay,                        ! Day Type
  0,                                      ! Daylight Saving Time Indicator
  Wetbulb,                                ! Humidity Indicating Type
  ,                                       ! Humidity Indicating Day Schedule Name
  DefaultMultipliers,                     ! Dry-Bulb Temperature Range Modifier Type
  ,                                       ! Dry-Bulb Temperature Range Modifier Schedule Name
  ASHRAEClearSky;                         ! Solar Model Indicator

OS:ComponentData,
  {d8f6df37-5dc1-46c9-b1ba-f3484dd86cfd}, ! Handle
  Component Data 1,                       ! Name
  {51a8d7a2-d4be-4d4e-a9e7-c442c2730950}, ! UUID
  {f161989a-3bd2-45dd-8646-cced9baba194}, ! Version UUID
  1366310108,                             ! Creation Timestamp
  1366310108,                             ! Version Timestamp
  {5e2dbf5b-30b5-4674-86b1-959723e46f02}; ! Name of Object 1

