
OS:Version,
  {2f638005-9248-48aa-b50c-d4970d89bb00}, ! Handle
  0.9.3;                                  ! Version Identifier

OS:SizingPeriod:DesignDay,
  {cd2c267c-d1af-4e0e-9f25-8c2af3ddbd30}, ! Handle
  Manchester Airport Ann Htg 99% Condns DB, ! Name
  -14,                                    ! Maximum Dry-Bulb Temperature {C}
  0,                                      ! Daily Dry-Bulb Temperature Range {deltaC}
  -14,                                    ! Humidity Indicating Conditions at Maximum Dry-Bulb {BasedOnField A3}
  100499,                                 ! Barometric Pressure {Pa}
  3.4,                                    ! Wind Speed {m/s}
  330,                                    ! Wind Direction {deg}
  0,                                      ! Sky Clearness
  0,                                      ! Rain Indicator
  0,                                      ! Snow Indicator
  21,                                     ! Day of Month
  1,                                      ! Month
  WinterDesignDay,                        ! Day Type
  0,                                      ! Daylight Saving Time Indicator
  Wetbulb,                                ! Humidity Indicating Type
  ,                                       ! Humidity Indicating Day Schedule Name
  DefaultMultipliers,                     ! Dry-Bulb Temperature Range Modifier Type
  ,                                       ! Dry-Bulb Temperature Range Modifier Schedule Name
  ASHRAEClearSky;                         ! Solar Model Indicator

OS:ComponentData,
  {f595d82f-f428-49f6-8123-c56f95abe486}, ! Handle
  Component Data 1,                       ! Name
  {e11c3d59-f4af-4e49-b0c2-2c381810692b}, ! UUID
  {30658029-6545-4e7f-96d4-0fedaaa25e03}, ! Version UUID
  1366309261,                             ! Creation Timestamp
  1366309261,                             ! Version Timestamp
  {cd2c267c-d1af-4e0e-9f25-8c2af3ddbd30}; ! Name of Object 1

