
OS:Version,
  {325fad3e-57e3-49d4-b858-29f18e3d48d7}, ! Handle
  0.9.3;                                  ! Version Identifier

OS:SizingPeriod:DesignDay,
  {4550644e-3a75-4492-8550-2559ac970f57}, ! Handle
  Petersburg Ann Clg .4% Condns DB=>MWB,  ! Name
  21.2,                                   ! Maximum Dry-Bulb Temperature {C}
  6.1,                                    ! Daily Dry-Bulb Temperature Range {deltaC}
  14.3,                                   ! Humidity Indicating Conditions at Maximum Dry-Bulb {BasedOnField A3}
  100929,                                 ! Barometric Pressure {Pa}
  2.7,                                    ! Wind Speed {m/s}
  70,                                     ! Wind Direction {deg}
  0,                                      ! Sky Clearness
  0,                                      ! Rain Indicator
  0,                                      ! Snow Indicator
  21,                                     ! Day of Month
  7,                                      ! Month
  SummerDesignDay,                        ! Day Type
  0,                                      ! Daylight Saving Time Indicator
  Wetbulb,                                ! Humidity Indicating Type
  ,                                       ! Humidity Indicating Day Schedule Name
  DefaultMultipliers,                     ! Dry-Bulb Temperature Range Modifier Type
  ,                                       ! Dry-Bulb Temperature Range Modifier Schedule Name
  ASHRAETau,                              ! Solar Model Indicator
  ,                                       ! Beam Solar Day Schedule Name
  ,                                       ! Diffuse Solar Day Schedule Name
  0.393,                                  ! ASHRAE Taub {dimensionless}
  2.173;                                  ! ASHRAE Taud {dimensionless}

OS:ComponentData,
  {f552aa93-222f-4261-902b-89ef891be813}, ! Handle
  Component Data 1,                       ! Name
  {78c4b7a1-786c-4273-925a-4a0e12519e53}, ! UUID
  {4bf0f0e7-b088-47b5-821f-0bf1fd87f437}, ! Version UUID
  1366305482,                             ! Creation Timestamp
  1366305482,                             ! Version Timestamp
  {4550644e-3a75-4492-8550-2559ac970f57}; ! Name of Object 1

