
OS:Version,
  {0f753ea9-d153-4bb9-93d2-8c9b1f350bdb}, ! Handle
  0.9.3;                                  ! Version Identifier

OS:SizingPeriod:DesignDay,
  {1864a2ef-0fa7-4a2d-9f27-9dc964d99838}, ! Handle
  Oklahoma City Wiley Ann Hum_n 99.6% Condns DP=>MCDB, ! Name
  -8.4,                                   ! Maximum Dry-Bulb Temperature {C}
  0,                                      ! Daily Dry-Bulb Temperature Range {deltaC}
  -17.2,                                  ! Humidity Indicating Conditions at Maximum Dry-Bulb {BasedOnField A3}
  96657,                                  ! Barometric Pressure {Pa}
  5.1,                                    ! Wind Speed {m/s}
  0,                                      ! Wind Direction {deg}
  0,                                      ! Sky Clearness
  0,                                      ! Rain Indicator
  0,                                      ! Snow Indicator
  21,                                     ! Day of Month
  1,                                      ! Month
  WinterDesignDay,                        ! Day Type
  0,                                      ! Daylight Saving Time Indicator
  Dewpoint,                               ! Humidity Indicating Type
  ,                                       ! Humidity Indicating Day Schedule Name
  DefaultMultipliers,                     ! Dry-Bulb Temperature Range Modifier Type
  ,                                       ! Dry-Bulb Temperature Range Modifier Schedule Name
  ASHRAEClearSky;                         ! Solar Model Indicator

OS:ComponentData,
  {826fece5-8d1f-4140-a022-d36ea4c3996b}, ! Handle
  Component Data 1,                       ! Name
  {4deda1df-8a1d-46df-817b-1cbac9e63cb0}, ! UUID
  {3e69a8c9-7914-4303-bbbe-6431500ee6b2}, ! Version UUID
  1366309917,                             ! Creation Timestamp
  1366309917,                             ! Version Timestamp
  {1864a2ef-0fa7-4a2d-9f27-9dc964d99838}; ! Name of Object 1

