
OS:Version,
  {5606cb67-0ffc-4fc8-95d6-6d38c12e5a01}, ! Handle
  0.9.3;                                  ! Version Identifier

OS:SizingPeriod:DesignDay,
  {619c832c-3c99-43c4-b6fe-0a31e7c9ea5f}, ! Handle
  Whiting Field Naas Ann Clg 2% Condns Enth=>MDB, ! Name
  30.7,                                   ! Maximum Dry-Bulb Temperature {C}
  10,                                     ! Daily Dry-Bulb Temperature Range {deltaC}
  80100,                                  ! Humidity Indicating Conditions at Maximum Dry-Bulb {BasedOnField A3}
  100678,                                 ! Barometric Pressure {Pa}
  2.7,                                    ! Wind Speed {m/s}
  330,                                    ! Wind Direction {deg}
  0,                                      ! Sky Clearness
  0,                                      ! Rain Indicator
  0,                                      ! Snow Indicator
  21,                                     ! Day of Month
  7,                                      ! Month
  SummerDesignDay,                        ! Day Type
  0,                                      ! Daylight Saving Time Indicator
  Enthalpy,                               ! Humidity Indicating Type
  ,                                       ! Humidity Indicating Day Schedule Name
  DefaultMultipliers,                     ! Dry-Bulb Temperature Range Modifier Type
  ,                                       ! Dry-Bulb Temperature Range Modifier Schedule Name
  ASHRAETau,                              ! Solar Model Indicator
  ,                                       ! Beam Solar Day Schedule Name
  ,                                       ! Diffuse Solar Day Schedule Name
  0.535,                                  ! ASHRAE Taub {dimensionless}
  1.87;                                   ! ASHRAE Taud {dimensionless}

