
OS:Version,
  {b060696a-d79c-447f-b15b-84c97a4adaa2}, ! Handle
  0.9.3;                                  ! Version Identifier

OS:SizingPeriod:DesignDay,
  {62170797-7d14-4fa3-a8dd-9d7e3fd3cc0a}, ! Handle
  Victoria Regional Ap Ann Clg .4% Condns DB=>MWB, ! Name
  35.9,                                   ! Maximum Dry-Bulb Temperature {C}
  10.6,                                   ! Daily Dry-Bulb Temperature Range {deltaC}
  24.6,                                   ! Humidity Indicating Conditions at Maximum Dry-Bulb {BasedOnField A3}
  100905,                                 ! Barometric Pressure {Pa}
  4.9,                                    ! Wind Speed {m/s}
  170,                                    ! Wind Direction {deg}
  0,                                      ! Sky Clearness
  0,                                      ! Rain Indicator
  0,                                      ! Snow Indicator
  21,                                     ! Day of Month
  8,                                      ! Month
  SummerDesignDay,                        ! Day Type
  0,                                      ! Daylight Saving Time Indicator
  Wetbulb,                                ! Humidity Indicating Type
  ,                                       ! Humidity Indicating Day Schedule Name
  DefaultMultipliers,                     ! Dry-Bulb Temperature Range Modifier Type
  ,                                       ! Dry-Bulb Temperature Range Modifier Schedule Name
  ASHRAETau,                              ! Solar Model Indicator
  ,                                       ! Beam Solar Day Schedule Name
  ,                                       ! Diffuse Solar Day Schedule Name
  0.474,                                  ! ASHRAE Taub {dimensionless}
  2.062;                                  ! ASHRAE Taud {dimensionless}

OS:ComponentData,
  {5d0c31f4-9f5c-418c-bd0f-50294b589fc7}, ! Handle
  Component Data 1,                       ! Name
  {9916f964-cb35-455c-9fc4-e649b9d79954}, ! UUID
  {9e15d90b-9565-4f82-808b-86192fc1ea68}, ! Version UUID
  1366310912,                             ! Creation Timestamp
  1366310912,                             ! Version Timestamp
  {62170797-7d14-4fa3-a8dd-9d7e3fd3cc0a}; ! Name of Object 1

