
OS:Version,
  {ee7616d4-8556-4172-8e24-aa3d4d1f9311}, ! Handle
  0.9.3;                                  ! Version Identifier

OS:SizingPeriod:DesignDay,
  {d210f89d-d8bd-4b7b-8c82-badee28e7632}, ! Handle
  Providence T F Green State Ar Ann Clg 1% Condns DB=>MWB, ! Name
  30.4,                                   ! Maximum Dry-Bulb Temperature {C}
  9.6,                                    ! Daily Dry-Bulb Temperature Range {deltaC}
  22.1,                                   ! Humidity Indicating Conditions at Maximum Dry-Bulb {BasedOnField A3}
  101133,                                 ! Barometric Pressure {Pa}
  5.5,                                    ! Wind Speed {m/s}
  280,                                    ! Wind Direction {deg}
  0,                                      ! Sky Clearness
  0,                                      ! Rain Indicator
  0,                                      ! Snow Indicator
  21,                                     ! Day of Month
  7,                                      ! Month
  SummerDesignDay,                        ! Day Type
  0,                                      ! Daylight Saving Time Indicator
  Wetbulb,                                ! Humidity Indicating Type
  ,                                       ! Humidity Indicating Day Schedule Name
  DefaultMultipliers,                     ! Dry-Bulb Temperature Range Modifier Type
  ,                                       ! Dry-Bulb Temperature Range Modifier Schedule Name
  ASHRAETau,                              ! Solar Model Indicator
  ,                                       ! Beam Solar Day Schedule Name
  ,                                       ! Diffuse Solar Day Schedule Name
  0.507,                                  ! ASHRAE Taub {dimensionless}
  1.885;                                  ! ASHRAE Taud {dimensionless}

OS:ComponentData,
  {47995f87-56f1-49de-b65f-5cd482aaea0d}, ! Handle
  Component Data 1,                       ! Name
  {aefe8dca-2e83-405e-9325-eab00c84bb1e}, ! UUID
  {bc7ef041-b574-4fd2-8cab-3bccdf4fe532}, ! Version UUID
  1366310302,                             ! Creation Timestamp
  1366310302,                             ! Version Timestamp
  {d210f89d-d8bd-4b7b-8c82-badee28e7632}; ! Name of Object 1

