
OS:Version,
  {bc3a4e71-cd25-4c62-8afa-119affcc44d8}, ! Handle
  0.9.3;                                  ! Version Identifier

OS:SizingPeriod:DesignDay,
  {8360531d-42ec-4f3f-9b6f-924510505beb}, ! Handle
  Williston Sloulin Intl Ap Ann Clg 2% Condns Enth=>MDB, ! Name
  28.1,                                   ! Maximum Dry-Bulb Temperature {C}
  14.5,                                   ! Daily Dry-Bulb Temperature Range {deltaC}
  58600,                                  ! Humidity Indicating Conditions at Maximum Dry-Bulb {BasedOnField A3}
  94549,                                  ! Barometric Pressure {Pa}
  5.5,                                    ! Wind Speed {m/s}
  150,                                    ! Wind Direction {deg}
  0,                                      ! Sky Clearness
  0,                                      ! Rain Indicator
  0,                                      ! Snow Indicator
  21,                                     ! Day of Month
  7,                                      ! Month
  SummerDesignDay,                        ! Day Type
  0,                                      ! Daylight Saving Time Indicator
  Enthalpy,                               ! Humidity Indicating Type
  ,                                       ! Humidity Indicating Day Schedule Name
  DefaultMultipliers,                     ! Dry-Bulb Temperature Range Modifier Type
  ,                                       ! Dry-Bulb Temperature Range Modifier Schedule Name
  ASHRAETau,                              ! Solar Model Indicator
  ,                                       ! Beam Solar Day Schedule Name
  ,                                       ! Diffuse Solar Day Schedule Name
  0.388,                                  ! ASHRAE Taub {dimensionless}
  2.236;                                  ! ASHRAE Taud {dimensionless}

