
OS:Version,
  {551fa82b-dd9b-457b-97ba-056990a071e1}, ! Handle
  0.9.3;                                  ! Version Identifier

OS:SizingPeriod:DesignDay,
  {b30768df-2886-403a-bee2-37318e702823}, ! Handle
  San Antonio Intl Ap Ann Htg Wind 99% Condns WS=>MCDB, ! Name
  10.1,                                   ! Maximum Dry-Bulb Temperature {C}
  0,                                      ! Daily Dry-Bulb Temperature Range {deltaC}
  10.1,                                   ! Humidity Indicating Conditions at Maximum Dry-Bulb {BasedOnField A3}
  98393,                                  ! Barometric Pressure {Pa}
  9.3,                                    ! Wind Speed {m/s}
  10,                                     ! Wind Direction {deg}
  0,                                      ! Sky Clearness
  0,                                      ! Rain Indicator
  0,                                      ! Snow Indicator
  21,                                     ! Day of Month
  1,                                      ! Month
  WinterDesignDay,                        ! Day Type
  0,                                      ! Daylight Saving Time Indicator
  Wetbulb,                                ! Humidity Indicating Type
  ,                                       ! Humidity Indicating Day Schedule Name
  DefaultMultipliers,                     ! Dry-Bulb Temperature Range Modifier Type
  ,                                       ! Dry-Bulb Temperature Range Modifier Schedule Name
  ASHRAEClearSky;                         ! Solar Model Indicator

OS:ComponentData,
  {4279b877-aee9-4847-86db-f2651408fe26}, ! Handle
  Component Data 1,                       ! Name
  {7fa860f6-c531-463c-804d-87779726b4dc}, ! UUID
  {1dc7b2d5-d2d3-4338-9018-f1147961fa4c}, ! Version UUID
  1366310897,                             ! Creation Timestamp
  1366310897,                             ! Version Timestamp
  {b30768df-2886-403a-bee2-37318e702823}; ! Name of Object 1

