
OS:Version,
  {693ff751-5a58-4ebf-b804-4d9febd3fa6c}, ! Handle
  0.9.3;                                  ! Version Identifier

OS:SizingPeriod:DesignDay,
  {658cbf6f-dcbb-473a-95d0-ef7a589261e9}, ! Handle
  Palm Springs Thermal Ap Ann Clg .4% Condns Enth=>MDB, ! Name
  36.3,                                   ! Maximum Dry-Bulb Temperature {C}
  16.8,                                   ! Daily Dry-Bulb Temperature Range {deltaC}
  82700,                                  ! Humidity Indicating Conditions at Maximum Dry-Bulb {BasedOnField A3}
  101734,                                 ! Barometric Pressure {Pa}
  3.4,                                    ! Wind Speed {m/s}
  140,                                    ! Wind Direction {deg}
  0,                                      ! Sky Clearness
  0,                                      ! Rain Indicator
  0,                                      ! Snow Indicator
  21,                                     ! Day of Month
  7,                                      ! Month
  SummerDesignDay,                        ! Day Type
  0,                                      ! Daylight Saving Time Indicator
  Enthalpy,                               ! Humidity Indicating Type
  ,                                       ! Humidity Indicating Day Schedule Name
  DefaultMultipliers,                     ! Dry-Bulb Temperature Range Modifier Type
  ,                                       ! Dry-Bulb Temperature Range Modifier Schedule Name
  ASHRAETau,                              ! Solar Model Indicator
  ,                                       ! Beam Solar Day Schedule Name
  ,                                       ! Diffuse Solar Day Schedule Name
  0.511,                                  ! ASHRAE Taub {dimensionless}
  1.868;                                  ! ASHRAE Taud {dimensionless}

OS:ComponentData,
  {0046aec1-e34b-4670-b127-d4841096f3cb}, ! Handle
  Component Data 1,                       ! Name
  {61c87917-1151-43cc-a592-35b7bec34b00}, ! UUID
  {46a8c177-6d1c-41d5-9e23-886d2a9bed1c}, ! Version UUID
  1366306528,                             ! Creation Timestamp
  1366306528,                             ! Version Timestamp
  {658cbf6f-dcbb-473a-95d0-ef7a589261e9}; ! Name of Object 1

