
OS:Version,
  {c824f622-0301-4977-983e-9632e5d2940d}, ! Handle
  0.9.3;                                  ! Version Identifier

OS:SizingPeriod:DesignDay,
  {2571c29c-9237-44ce-b412-0518b8ad369d}, ! Handle
  San Antonio Stinson Ann Htg 99.6% Condns DB, ! Name
  -0.8,                                   ! Maximum Dry-Bulb Temperature {C}
  0,                                      ! Daily Dry-Bulb Temperature Range {deltaC}
  -0.8,                                   ! Humidity Indicating Conditions at Maximum Dry-Bulb {BasedOnField A3}
  99228,                                  ! Barometric Pressure {Pa}
  2.1,                                    ! Wind Speed {m/s}
  10,                                     ! Wind Direction {deg}
  0,                                      ! Sky Clearness
  0,                                      ! Rain Indicator
  0,                                      ! Snow Indicator
  21,                                     ! Day of Month
  12,                                     ! Month
  WinterDesignDay,                        ! Day Type
  0,                                      ! Daylight Saving Time Indicator
  Wetbulb,                                ! Humidity Indicating Type
  ,                                       ! Humidity Indicating Day Schedule Name
  DefaultMultipliers,                     ! Dry-Bulb Temperature Range Modifier Type
  ,                                       ! Dry-Bulb Temperature Range Modifier Schedule Name
  ASHRAEClearSky;                         ! Solar Model Indicator

