
OS:Version,
  {02827df9-78d1-43a4-a695-5504a44c49ec}, ! Handle
  0.9.3;                                  ! Version Identifier

OS:SizingPeriod:DesignDay,
  {3dc1ab76-5d3b-4ea6-ad9f-ab78f04c61a5}, ! Handle
  WILKES-BARRE Ann Clg 2% Condns WB=>MDB, ! Name
  26.4,                                   ! Maximum Dry-Bulb Temperature {C}
  10.8,                                   ! Daily Dry-Bulb Temperature Range {deltaC}
  22.2,                                   ! Humidity Indicating Conditions at Maximum Dry-Bulb {BasedOnField A3}
  97901,                                  ! Barometric Pressure {Pa}
  4.5,                                    ! Wind Speed {m/s}
  240,                                    ! Wind Direction {deg}
  0,                                      ! Sky Clearness
  0,                                      ! Rain Indicator
  0,                                      ! Snow Indicator
  21,                                     ! Day of Month
  7,                                      ! Month
  SummerDesignDay,                        ! Day Type
  0,                                      ! Daylight Saving Time Indicator
  Wetbulb,                                ! Humidity Indicating Type
  ,                                       ! Humidity Indicating Day Schedule Name
  DefaultMultipliers,                     ! Dry-Bulb Temperature Range Modifier Type
  ,                                       ! Dry-Bulb Temperature Range Modifier Schedule Name
  ASHRAETau,                              ! Solar Model Indicator
  ,                                       ! Beam Solar Day Schedule Name
  ,                                       ! Diffuse Solar Day Schedule Name
  0.477,                                  ! ASHRAE Taub {dimensionless}
  1.945;                                  ! ASHRAE Taud {dimensionless}

OS:ComponentData,
  {c6895271-be5f-496a-9851-fd4e11cf79c8}, ! Handle
  Component Data 1,                       ! Name
  {c3f610fc-74e7-4106-ae0c-44a176d51df8}, ! UUID
  {9b268485-747a-41ac-9e6b-d0e15f06ea8a}, ! Version UUID
  1366310271,                             ! Creation Timestamp
  1366310271,                             ! Version Timestamp
  {3dc1ab76-5d3b-4ea6-ad9f-ab78f04c61a5}; ! Name of Object 1

