
OS:Version,
  {160bb3e8-1909-42e3-8a18-1670f65ea400}, ! Handle
  0.9.3;                                  ! Version Identifier

OS:SizingPeriod:DesignDay,
  {15940f60-d368-440f-8507-971a853ecadb}, ! Handle
  MOLINE Ann Clg 2% Condns DP=>MDB,       ! Name
  27.4,                                   ! Maximum Dry-Bulb Temperature {C}
  11.1,                                   ! Daily Dry-Bulb Temperature Range {deltaC}
  22.7,                                   ! Humidity Indicating Conditions at Maximum Dry-Bulb {BasedOnField A3}
  99169,                                  ! Barometric Pressure {Pa}
  4.9,                                    ! Wind Speed {m/s}
  210,                                    ! Wind Direction {deg}
  0,                                      ! Sky Clearness
  0,                                      ! Rain Indicator
  0,                                      ! Snow Indicator
  21,                                     ! Day of Month
  7,                                      ! Month
  SummerDesignDay,                        ! Day Type
  0,                                      ! Daylight Saving Time Indicator
  Dewpoint,                               ! Humidity Indicating Type
  ,                                       ! Humidity Indicating Day Schedule Name
  DefaultMultipliers,                     ! Dry-Bulb Temperature Range Modifier Type
  ,                                       ! Dry-Bulb Temperature Range Modifier Schedule Name
  ASHRAETau,                              ! Solar Model Indicator
  ,                                       ! Beam Solar Day Schedule Name
  ,                                       ! Diffuse Solar Day Schedule Name
  0.449,                                  ! ASHRAE Taub {dimensionless}
  2.068;                                  ! ASHRAE Taud {dimensionless}

OS:ComponentData,
  {492f5ca3-9e30-4234-b5a2-2f4af7cadf8f}, ! Handle
  Component Data 1,                       ! Name
  {35502e28-688d-4a75-897c-29f5b3964353}, ! UUID
  {53725335-7931-453f-b452-530d844fe811}, ! Version UUID
  1366307373,                             ! Creation Timestamp
  1366307373,                             ! Version Timestamp
  {15940f60-d368-440f-8507-971a853ecadb}; ! Name of Object 1

