
OS:Version,
  {3178f0a0-5dd8-4f8a-8e5b-d0265a1f60b3}, ! Handle
  0.9.3;                                  ! Version Identifier

OS:SizingPeriod:DesignDay,
  {25f62112-058c-4317-927e-803d3018b6f5}, ! Handle
  Traverse City Cherry Capital Ann Clg 1% Condns Enth=>MDB, ! Name
  27.7,                                   ! Maximum Dry-Bulb Temperature {C}
  11.8,                                   ! Daily Dry-Bulb Temperature Range {deltaC}
  67700,                                  ! Humidity Indicating Conditions at Maximum Dry-Bulb {BasedOnField A3}
  99087,                                  ! Barometric Pressure {Pa}
  5.1,                                    ! Wind Speed {m/s}
  230,                                    ! Wind Direction {deg}
  0,                                      ! Sky Clearness
  0,                                      ! Rain Indicator
  0,                                      ! Snow Indicator
  21,                                     ! Day of Month
  7,                                      ! Month
  SummerDesignDay,                        ! Day Type
  0,                                      ! Daylight Saving Time Indicator
  Enthalpy,                               ! Humidity Indicating Type
  ,                                       ! Humidity Indicating Day Schedule Name
  DefaultMultipliers,                     ! Dry-Bulb Temperature Range Modifier Type
  ,                                       ! Dry-Bulb Temperature Range Modifier Schedule Name
  ASHRAETau,                              ! Solar Model Indicator
  ,                                       ! Beam Solar Day Schedule Name
  ,                                       ! Diffuse Solar Day Schedule Name
  0.422,                                  ! ASHRAE Taub {dimensionless}
  2.177;                                  ! ASHRAE Taud {dimensionless}

