
OS:Version,
  {8753dc0e-b36d-4510-84ee-33ec2fb95517}, ! Handle
  0.9.3;                                  ! Version Identifier

OS:SizingPeriod:DesignDay,
  {08f3d1e5-f08a-4be9-8a0c-9d078e527868}, ! Handle
  Tulsa International Airport Ann Clg 1% Condns WB=>MDB, ! Name
  32.9,                                   ! Maximum Dry-Bulb Temperature {C}
  10.5,                                   ! Daily Dry-Bulb Temperature Range {deltaC}
  25.6,                                   ! Humidity Indicating Conditions at Maximum Dry-Bulb {BasedOnField A3}
  98969,                                  ! Barometric Pressure {Pa}
  4.9,                                    ! Wind Speed {m/s}
  190,                                    ! Wind Direction {deg}
  0,                                      ! Sky Clearness
  0,                                      ! Rain Indicator
  0,                                      ! Snow Indicator
  21,                                     ! Day of Month
  7,                                      ! Month
  SummerDesignDay,                        ! Day Type
  0,                                      ! Daylight Saving Time Indicator
  Wetbulb,                                ! Humidity Indicating Type
  ,                                       ! Humidity Indicating Day Schedule Name
  DefaultMultipliers,                     ! Dry-Bulb Temperature Range Modifier Type
  ,                                       ! Dry-Bulb Temperature Range Modifier Schedule Name
  ASHRAETau,                              ! Solar Model Indicator
  ,                                       ! Beam Solar Day Schedule Name
  ,                                       ! Diffuse Solar Day Schedule Name
  0.453,                                  ! ASHRAE Taub {dimensionless}
  2.105;                                  ! ASHRAE Taud {dimensionless}

OS:ComponentData,
  {61af6d49-f112-4191-a739-3ebbc6d323c6}, ! Handle
  Component Data 1,                       ! Name
  {cc6abfe9-c418-4a98-8504-b105aca0fbf1}, ! UUID
  {21a05bec-f3f8-42ba-b8fe-55a5d9244056}, ! Version UUID
  1366309958,                             ! Creation Timestamp
  1366309958,                             ! Version Timestamp
  {08f3d1e5-f08a-4be9-8a0c-9d078e527868}; ! Name of Object 1

