
OS:Version,
  {c3d3da5c-af65-45fd-ad1d-868384d37026}, ! Handle
  0.9.3;                                  ! Version Identifier

OS:SizingPeriod:DesignDay,
  {ff6bb93b-d5d5-420d-b568-a3804a3ef33e}, ! Handle
  Minchumina Ann Clg 1% Condns WB=>MDB,   ! Name
  21.1,                                   ! Maximum Dry-Bulb Temperature {C}
  8.5,                                    ! Daily Dry-Bulb Temperature Range {deltaC}
  15.2,                                   ! Humidity Indicating Conditions at Maximum Dry-Bulb {BasedOnField A3}
  98792,                                  ! Barometric Pressure {Pa}
  1.7,                                    ! Wind Speed {m/s}
  70,                                     ! Wind Direction {deg}
  0,                                      ! Sky Clearness
  0,                                      ! Rain Indicator
  0,                                      ! Snow Indicator
  21,                                     ! Day of Month
  7,                                      ! Month
  SummerDesignDay,                        ! Day Type
  0,                                      ! Daylight Saving Time Indicator
  Wetbulb,                                ! Humidity Indicating Type
  ,                                       ! Humidity Indicating Day Schedule Name
  DefaultMultipliers,                     ! Dry-Bulb Temperature Range Modifier Type
  ,                                       ! Dry-Bulb Temperature Range Modifier Schedule Name
  ASHRAETau,                              ! Solar Model Indicator
  ,                                       ! Beam Solar Day Schedule Name
  ,                                       ! Diffuse Solar Day Schedule Name
  0.376,                                  ! ASHRAE Taub {dimensionless}
  2.222;                                  ! ASHRAE Taud {dimensionless}

OS:ComponentData,
  {a9a87cfa-8158-407e-8cb0-b82c9a6a537d}, ! Handle
  Component Data 1,                       ! Name
  {0c2a7657-3de4-4382-9952-f7bc5791d345}, ! UUID
  {4f066a89-70ac-44cf-8c11-32368b5fa516}, ! Version UUID
  1366305435,                             ! Creation Timestamp
  1366305435,                             ! Version Timestamp
  {ff6bb93b-d5d5-420d-b568-a3804a3ef33e}; ! Name of Object 1

