
OS:Version,
  {2fe73ef5-3272-45e7-ae00-cb92a7f65426}, ! Handle
  0.9.3;                                  ! Version Identifier

OS:SizingPeriod:DesignDay,
  {52a0f610-44c7-40c9-83df-231636a16c6c}, ! Handle
  Morgantown Hart Field Ann Htg Wind 99.6% Condns WS=>MCDB, ! Name
  2.1,                                    ! Maximum Dry-Bulb Temperature {C}
  0,                                      ! Daily Dry-Bulb Temperature Range {deltaC}
  2.1,                                    ! Humidity Indicating Conditions at Maximum Dry-Bulb {BasedOnField A3}
  96866,                                  ! Barometric Pressure {Pa}
  8.8,                                    ! Wind Speed {m/s}
  240,                                    ! Wind Direction {deg}
  0,                                      ! Sky Clearness
  0,                                      ! Rain Indicator
  0,                                      ! Snow Indicator
  21,                                     ! Day of Month
  1,                                      ! Month
  WinterDesignDay,                        ! Day Type
  0,                                      ! Daylight Saving Time Indicator
  Wetbulb,                                ! Humidity Indicating Type
  ,                                       ! Humidity Indicating Day Schedule Name
  DefaultMultipliers,                     ! Dry-Bulb Temperature Range Modifier Type
  ,                                       ! Dry-Bulb Temperature Range Modifier Schedule Name
  ASHRAEClearSky;                         ! Solar Model Indicator

OS:ComponentData,
  {4a89ae5d-09f0-4121-bffd-1e2561ebfdbf}, ! Handle
  Component Data 1,                       ! Name
  {2f8d240d-6951-416d-86f9-bf82e11b9e95}, ! UUID
  {3d9adc27-5b84-42b1-b41b-04087e92bd7d}, ! Version UUID
  1366311669,                             ! Creation Timestamp
  1366311669,                             ! Version Timestamp
  {52a0f610-44c7-40c9-83df-231636a16c6c}; ! Name of Object 1

