
OS:Version,
  {4c2969d3-c17b-4499-b00b-81ec72e3f069}, ! Handle
  0.9.3;                                  ! Version Identifier

OS:SizingPeriod:DesignDay,
  {02fe1b58-71d5-402d-93df-b13b93f6d3ed}, ! Handle
  Shreveport Ann Clg .4% Condns Enth=>MDB, ! Name
  32.7,                                   ! Maximum Dry-Bulb Temperature {C}
  10.7,                                   ! Daily Dry-Bulb Temperature Range {deltaC}
  82000,                                  ! Humidity Indicating Conditions at Maximum Dry-Bulb {BasedOnField A3}
  100380,                                 ! Barometric Pressure {Pa}
  3.3,                                    ! Wind Speed {m/s}
  180,                                    ! Wind Direction {deg}
  0,                                      ! Sky Clearness
  0,                                      ! Rain Indicator
  0,                                      ! Snow Indicator
  21,                                     ! Day of Month
  7,                                      ! Month
  SummerDesignDay,                        ! Day Type
  0,                                      ! Daylight Saving Time Indicator
  Enthalpy,                               ! Humidity Indicating Type
  ,                                       ! Humidity Indicating Day Schedule Name
  DefaultMultipliers,                     ! Dry-Bulb Temperature Range Modifier Type
  ,                                       ! Dry-Bulb Temperature Range Modifier Schedule Name
  ASHRAETau,                              ! Solar Model Indicator
  ,                                       ! Beam Solar Day Schedule Name
  ,                                       ! Diffuse Solar Day Schedule Name
  0.489,                                  ! ASHRAE Taub {dimensionless}
  2.014;                                  ! ASHRAE Taud {dimensionless}

OS:ComponentData,
  {6bc1590a-04e7-49a1-a95f-2887a8c6c247}, ! Handle
  Component Data 1,                       ! Name
  {bacc75fa-3c0d-44c3-a131-a36eedadccd1}, ! UUID
  {1e993fd3-53b8-431c-a467-0b438717275e}, ! Version UUID
  1366307770,                             ! Creation Timestamp
  1366307770,                             ! Version Timestamp
  {02fe1b58-71d5-402d-93df-b13b93f6d3ed}; ! Name of Object 1

