
OS:Version,
  {12217c00-ece8-429c-93f4-843bbc55fc67}, ! Handle
  0.9.3;                                  ! Version Identifier

OS:SizingPeriod:DesignDay,
  {2da57c30-d09a-4c28-a8cd-fa97bc619aba}, ! Handle
  Winslow Ann Clg 1% Condns DP=>MDB,      ! Name
  20.7,                                   ! Maximum Dry-Bulb Temperature {C}
  16.2,                                   ! Daily Dry-Bulb Temperature Range {deltaC}
  15.6,                                   ! Humidity Indicating Conditions at Maximum Dry-Bulb {BasedOnField A3}
  84660,                                  ! Barometric Pressure {Pa}
  4.7,                                    ! Wind Speed {m/s}
  260,                                    ! Wind Direction {deg}
  0,                                      ! Sky Clearness
  0,                                      ! Rain Indicator
  0,                                      ! Snow Indicator
  21,                                     ! Day of Month
  7,                                      ! Month
  SummerDesignDay,                        ! Day Type
  0,                                      ! Daylight Saving Time Indicator
  Dewpoint,                               ! Humidity Indicating Type
  ,                                       ! Humidity Indicating Day Schedule Name
  DefaultMultipliers,                     ! Dry-Bulb Temperature Range Modifier Type
  ,                                       ! Dry-Bulb Temperature Range Modifier Schedule Name
  ASHRAETau,                              ! Solar Model Indicator
  ,                                       ! Beam Solar Day Schedule Name
  ,                                       ! Diffuse Solar Day Schedule Name
  0.444,                                  ! ASHRAE Taub {dimensionless}
  1.959;                                  ! ASHRAE Taud {dimensionless}

OS:ComponentData,
  {fc975c0c-03d5-4460-8d67-198d0f80a7cd}, ! Handle
  Component Data 1,                       ! Name
  {0797f898-d1a8-4152-8756-521a55917611}, ! UUID
  {113cefcb-ce38-46a3-9134-41867e3421cb}, ! Version UUID
  1366306329,                             ! Creation Timestamp
  1366306329,                             ! Version Timestamp
  {2da57c30-d09a-4c28-a8cd-fa97bc619aba}; ! Name of Object 1

