
OS:Version,
  {a652d6a0-2bf5-4f8f-b54b-da44a21165a9}, ! Handle
  0.9.3;                                  ! Version Identifier

OS:SizingPeriod:DesignDay,
  {2bc95503-ffdb-4fac-9542-335fcf2d5c5c}, ! Handle
  Rome R B Russell Ap Ann Clg 2% Condns DP=>MDB, ! Name
  27.5,                                   ! Maximum Dry-Bulb Temperature {C}
  11.6,                                   ! Daily Dry-Bulb Temperature Range {deltaC}
  22.7,                                   ! Humidity Indicating Conditions at Maximum Dry-Bulb {BasedOnField A3}
  99004,                                  ! Barometric Pressure {Pa}
  2.4,                                    ! Wind Speed {m/s}
  280,                                    ! Wind Direction {deg}
  0,                                      ! Sky Clearness
  0,                                      ! Rain Indicator
  0,                                      ! Snow Indicator
  21,                                     ! Day of Month
  7,                                      ! Month
  SummerDesignDay,                        ! Day Type
  0,                                      ! Daylight Saving Time Indicator
  Dewpoint,                               ! Humidity Indicating Type
  ,                                       ! Humidity Indicating Day Schedule Name
  DefaultMultipliers,                     ! Dry-Bulb Temperature Range Modifier Type
  ,                                       ! Dry-Bulb Temperature Range Modifier Schedule Name
  ASHRAETau,                              ! Solar Model Indicator
  ,                                       ! Beam Solar Day Schedule Name
  ,                                       ! Diffuse Solar Day Schedule Name
  0.577,                                  ! ASHRAE Taub {dimensionless}
  1.731;                                  ! ASHRAE Taud {dimensionless}

OS:ComponentData,
  {bb2af94e-d76b-42f9-b990-aa34891931ac}, ! Handle
  Component Data 1,                       ! Name
  {395f17ac-060c-4bb5-b0a8-f769aed6d65f}, ! UUID
  {ba4fd500-0bf6-4efe-ad1c-7993847fbbd9}, ! Version UUID
  1366307036,                             ! Creation Timestamp
  1366307036,                             ! Version Timestamp
  {2bc95503-ffdb-4fac-9542-335fcf2d5c5c}; ! Name of Object 1

