
OS:Version,
  {d230cb26-47ec-4c62-8c0a-fff9fb0c9576}, ! Handle
  0.9.3;                                  ! Version Identifier

OS:SizingPeriod:DesignDay,
  {8ca6bc24-ac9d-4f93-b201-968def6fbf28}, ! Handle
  ROANOKE Ann Clg 2% Condns DB=>MWB,      ! Name
  30.8,                                   ! Maximum Dry-Bulb Temperature {C}
  10.6,                                   ! Daily Dry-Bulb Temperature Range {deltaC}
  22,                                     ! Humidity Indicating Conditions at Maximum Dry-Bulb {BasedOnField A3}
  97098,                                  ! Barometric Pressure {Pa}
  4,                                      ! Wind Speed {m/s}
  280,                                    ! Wind Direction {deg}
  0,                                      ! Sky Clearness
  0,                                      ! Rain Indicator
  0,                                      ! Snow Indicator
  21,                                     ! Day of Month
  7,                                      ! Month
  SummerDesignDay,                        ! Day Type
  0,                                      ! Daylight Saving Time Indicator
  Wetbulb,                                ! Humidity Indicating Type
  ,                                       ! Humidity Indicating Day Schedule Name
  DefaultMultipliers,                     ! Dry-Bulb Temperature Range Modifier Type
  ,                                       ! Dry-Bulb Temperature Range Modifier Schedule Name
  ASHRAETau,                              ! Solar Model Indicator
  ,                                       ! Beam Solar Day Schedule Name
  ,                                       ! Diffuse Solar Day Schedule Name
  0.529,                                  ! ASHRAE Taub {dimensionless}
  1.818;                                  ! ASHRAE Taud {dimensionless}

OS:ComponentData,
  {729f3a3e-7651-4f9e-bd4b-96544782d8ac}, ! Handle
  Component Data 1,                       ! Name
  {832cc583-839d-4980-b037-8c57ef689cd2}, ! UUID
  {9eda77c2-cdf5-495c-bf11-d1ffe91b7b41}, ! Version UUID
  1366311180,                             ! Creation Timestamp
  1366311180,                             ! Version Timestamp
  {8ca6bc24-ac9d-4f93-b201-968def6fbf28}; ! Name of Object 1

