
OS:Version,
  {8150d449-b632-4def-ad66-45be37ee1776}, ! Handle
  0.9.3;                                  ! Version Identifier

OS:SizingPeriod:DesignDay,
  {8a8ac7aa-1033-4a82-b98d-1675f4c4664a}, ! Handle
  San Diego/Int'l Airpor Ann Hum_n 99% Condns DP=>MCDB, ! Name
  15.6,                                   ! Maximum Dry-Bulb Temperature {C}
  0,                                      ! Daily Dry-Bulb Temperature Range {deltaC}
  -4.8,                                   ! Humidity Indicating Conditions at Maximum Dry-Bulb {BasedOnField A3}
  101217,                                 ! Barometric Pressure {Pa}
  1.3,                                    ! Wind Speed {m/s}
  340,                                    ! Wind Direction {deg}
  0,                                      ! Sky Clearness
  0,                                      ! Rain Indicator
  0,                                      ! Snow Indicator
  21,                                     ! Day of Month
  12,                                     ! Month
  WinterDesignDay,                        ! Day Type
  0,                                      ! Daylight Saving Time Indicator
  Dewpoint,                               ! Humidity Indicating Type
  ,                                       ! Humidity Indicating Day Schedule Name
  DefaultMultipliers,                     ! Dry-Bulb Temperature Range Modifier Type
  ,                                       ! Dry-Bulb Temperature Range Modifier Schedule Name
  ASHRAEClearSky;                         ! Solar Model Indicator

OS:ComponentData,
  {cd569e8c-1a53-4cba-ae03-7487760ea2fc}, ! Handle
  Component Data 1,                       ! Name
  {c3f0d344-7a1c-4167-92ba-63556d2c452f}, ! UUID
  {0f180992-fd6e-477d-ab74-dd5ac8608b0c}, ! Version UUID
  1366306573,                             ! Creation Timestamp
  1366306573,                             ! Version Timestamp
  {8a8ac7aa-1033-4a82-b98d-1675f4c4664a}; ! Name of Object 1

