
OS:Version,
  {7f436cbb-1034-4151-9afd-019d349907e0}, ! Handle
  0.9.3;                                  ! Version Identifier

OS:SizingPeriod:DesignDay,
  {1fec929c-4aa6-412c-ab2e-609a89a9d09b}, ! Handle
  Russell Municipal Ap Ann Clg 1% Condns WB=>MDB, ! Name
  31.9,                                   ! Maximum Dry-Bulb Temperature {C}
  13.4,                                   ! Daily Dry-Bulb Temperature Range {deltaC}
  24,                                     ! Humidity Indicating Conditions at Maximum Dry-Bulb {BasedOnField A3}
  94708,                                  ! Barometric Pressure {Pa}
  7.9,                                    ! Wind Speed {m/s}
  180,                                    ! Wind Direction {deg}
  0,                                      ! Sky Clearness
  0,                                      ! Rain Indicator
  0,                                      ! Snow Indicator
  21,                                     ! Day of Month
  7,                                      ! Month
  SummerDesignDay,                        ! Day Type
  0,                                      ! Daylight Saving Time Indicator
  Wetbulb,                                ! Humidity Indicating Type
  ,                                       ! Humidity Indicating Day Schedule Name
  DefaultMultipliers,                     ! Dry-Bulb Temperature Range Modifier Type
  ,                                       ! Dry-Bulb Temperature Range Modifier Schedule Name
  ASHRAETau,                              ! Solar Model Indicator
  ,                                       ! Beam Solar Day Schedule Name
  ,                                       ! Diffuse Solar Day Schedule Name
  0.427,                                  ! ASHRAE Taub {dimensionless}
  2.131;                                  ! ASHRAE Taud {dimensionless}

OS:ComponentData,
  {c81f4fb0-b0be-498e-8583-2e572d68bfdf}, ! Handle
  Component Data 1,                       ! Name
  {885ed63c-f5fc-449b-a999-104d572d04df}, ! UUID
  {929f3450-bdec-4c68-ac66-edabf65a61db}, ! Version UUID
  1366307572,                             ! Creation Timestamp
  1366307572,                             ! Version Timestamp
  {1fec929c-4aa6-412c-ab2e-609a89a9d09b}; ! Name of Object 1

