
OS:Version,
  {2e13f647-ae5e-41e0-a03f-adb73b76731c}, ! Handle
  0.9.3;                                  ! Version Identifier

OS:SizingPeriod:DesignDay,
  {76617250-1695-45c8-9aef-ffce0d7c3142}, ! Handle
  Winona Muni  Awos Ann Clg 2% Condns DP=>MDB, ! Name
  26.1,                                   ! Maximum Dry-Bulb Temperature {C}
  10.6,                                   ! Daily Dry-Bulb Temperature Range {deltaC}
  21.9,                                   ! Humidity Indicating Conditions at Maximum Dry-Bulb {BasedOnField A3}
  98945,                                  ! Barometric Pressure {Pa}
  3.3,                                    ! Wind Speed {m/s}
  190,                                    ! Wind Direction {deg}
  0,                                      ! Sky Clearness
  0,                                      ! Rain Indicator
  0,                                      ! Snow Indicator
  21,                                     ! Day of Month
  7,                                      ! Month
  SummerDesignDay,                        ! Day Type
  0,                                      ! Daylight Saving Time Indicator
  Dewpoint,                               ! Humidity Indicating Type
  ,                                       ! Humidity Indicating Day Schedule Name
  DefaultMultipliers,                     ! Dry-Bulb Temperature Range Modifier Type
  ,                                       ! Dry-Bulb Temperature Range Modifier Schedule Name
  ASHRAETau,                              ! Solar Model Indicator
  ,                                       ! Beam Solar Day Schedule Name
  ,                                       ! Diffuse Solar Day Schedule Name
  0.424,                                  ! ASHRAE Taub {dimensionless}
  2.155;                                  ! ASHRAE Taud {dimensionless}

OS:ComponentData,
  {26b735a4-302f-4807-bef0-db4515fdd56b}, ! Handle
  Component Data 1,                       ! Name
  {bb47138b-9b94-4140-b871-01f504651dd7}, ! UUID
  {0c3e129a-fda8-47c5-a3f8-8662de6dea75}, ! Version UUID
  1366308465,                             ! Creation Timestamp
  1366308465,                             ! Version Timestamp
  {76617250-1695-45c8-9aef-ffce0d7c3142}; ! Name of Object 1

