
OS:Version,
  {787b77b6-a266-4a75-956b-570388f50ed2}, ! Handle
  0.9.3;                                  ! Version Identifier

OS:SizingPeriod:DesignDay,
  {27b6b917-4125-4590-a3db-6f0ed681030d}, ! Handle
  Miami/Int'l Airport Ann Clg 1% Condns WB=>MDB, ! Name
  30.4,                                   ! Maximum Dry-Bulb Temperature {C}
  6.7,                                    ! Daily Dry-Bulb Temperature Range {deltaC}
  26.4,                                   ! Humidity Indicating Conditions at Maximum Dry-Bulb {BasedOnField A3}
  101277,                                 ! Barometric Pressure {Pa}
  4.5,                                    ! Wind Speed {m/s}
  140,                                    ! Wind Direction {deg}
  0,                                      ! Sky Clearness
  0,                                      ! Rain Indicator
  0,                                      ! Snow Indicator
  21,                                     ! Day of Month
  7,                                      ! Month
  SummerDesignDay,                        ! Day Type
  0,                                      ! Daylight Saving Time Indicator
  Wetbulb,                                ! Humidity Indicating Type
  ,                                       ! Humidity Indicating Day Schedule Name
  DefaultMultipliers,                     ! Dry-Bulb Temperature Range Modifier Type
  ,                                       ! Dry-Bulb Temperature Range Modifier Schedule Name
  ASHRAETau,                              ! Solar Model Indicator
  ,                                       ! Beam Solar Day Schedule Name
  ,                                       ! Diffuse Solar Day Schedule Name
  0.528,                                  ! ASHRAE Taub {dimensionless}
  1.905;                                  ! ASHRAE Taud {dimensionless}

OS:ComponentData,
  {62422ca3-0aa3-4049-a905-f56dd95fe38c}, ! Handle
  Component Data 1,                       ! Name
  {35beec19-b52c-48cb-b094-12c519d36b01}, ! UUID
  {4e19f00d-2d58-4a80-b011-0cb4763b2695}, ! Version UUID
  1366306864,                             ! Creation Timestamp
  1366306864,                             ! Version Timestamp
  {27b6b917-4125-4590-a3db-6f0ed681030d}; ! Name of Object 1

