
OS:Version,
  {7b4d7dee-9bee-4907-9b22-4a45dfba3c5c}, ! Handle
  0.9.3;                                  ! Version Identifier

OS:SizingPeriod:DesignDay,
  {472d537b-5db2-4e54-bfd3-858ab2917e3e}, ! Handle
  New Ulm Muni  Awos Ann Clg 1% Condns Enth=>MDB, ! Name
  28.7,                                   ! Maximum Dry-Bulb Temperature {C}
  10.3,                                   ! Daily Dry-Bulb Temperature Range {deltaC}
  75400,                                  ! Humidity Indicating Conditions at Maximum Dry-Bulb {BasedOnField A3}
  97679,                                  ! Barometric Pressure {Pa}
  5.8,                                    ! Wind Speed {m/s}
  190,                                    ! Wind Direction {deg}
  0,                                      ! Sky Clearness
  0,                                      ! Rain Indicator
  0,                                      ! Snow Indicator
  21,                                     ! Day of Month
  7,                                      ! Month
  SummerDesignDay,                        ! Day Type
  0,                                      ! Daylight Saving Time Indicator
  Enthalpy,                               ! Humidity Indicating Type
  ,                                       ! Humidity Indicating Day Schedule Name
  DefaultMultipliers,                     ! Dry-Bulb Temperature Range Modifier Type
  ,                                       ! Dry-Bulb Temperature Range Modifier Schedule Name
  ASHRAETau,                              ! Solar Model Indicator
  ,                                       ! Beam Solar Day Schedule Name
  ,                                       ! Diffuse Solar Day Schedule Name
  0.405,                                  ! ASHRAE Taub {dimensionless}
  2.234;                                  ! ASHRAE Taud {dimensionless}

OS:ComponentData,
  {497457a0-26e0-4828-b77a-e3225f2ae834}, ! Handle
  Component Data 1,                       ! Name
  {470f37a7-3750-47b9-be69-4befb4192340}, ! UUID
  {ede7d87e-3be2-4464-b251-670b8fc442f1}, ! Version UUID
  1366308343,                             ! Creation Timestamp
  1366308343,                             ! Version Timestamp
  {472d537b-5db2-4e54-bfd3-858ab2917e3e}; ! Name of Object 1

