
OS:Version,
  {feb657fe-b251-499f-a884-bdd153f1df38}, ! Handle
  0.9.3;                                  ! Version Identifier

OS:SizingPeriod:DesignDay,
  {e8095bad-92d2-4e90-b129-4f63bacb66ce}, ! Handle
  Phoenix Sky Harbor Intl Ap Ann Clg .4% Condns Enth=>MDB, ! Name
  35.3,                                   ! Maximum Dry-Bulb Temperature {C}
  12,                                     ! Daily Dry-Bulb Temperature Range {deltaC}
  75600,                                  ! Humidity Indicating Conditions at Maximum Dry-Bulb {BasedOnField A3}
  97342,                                  ! Barometric Pressure {Pa}
  4.1,                                    ! Wind Speed {m/s}
  260,                                    ! Wind Direction {deg}
  0,                                      ! Sky Clearness
  0,                                      ! Rain Indicator
  0,                                      ! Snow Indicator
  21,                                     ! Day of Month
  7,                                      ! Month
  SummerDesignDay,                        ! Day Type
  0,                                      ! Daylight Saving Time Indicator
  Enthalpy,                               ! Humidity Indicating Type
  ,                                       ! Humidity Indicating Day Schedule Name
  DefaultMultipliers,                     ! Dry-Bulb Temperature Range Modifier Type
  ,                                       ! Dry-Bulb Temperature Range Modifier Schedule Name
  ASHRAETau,                              ! Solar Model Indicator
  ,                                       ! Beam Solar Day Schedule Name
  ,                                       ! Diffuse Solar Day Schedule Name
  0.588,                                  ! ASHRAE Taub {dimensionless}
  1.653;                                  ! ASHRAE Taud {dimensionless}

OS:ComponentData,
  {449fd56a-73b3-4c33-a2c1-ae9efd99c193}, ! Handle
  Component Data 1,                       ! Name
  {c5bcdf38-c182-4908-b5e3-a4b38b70715f}, ! UUID
  {1593f893-498b-407b-946a-f27bec6fde94}, ! Version UUID
  1366306296,                             ! Creation Timestamp
  1366306296,                             ! Version Timestamp
  {e8095bad-92d2-4e90-b129-4f63bacb66ce}; ! Name of Object 1

