
OS:Version,
  {66df1797-8114-4daf-acb5-e853f5ad5ecb}, ! Handle
  0.9.3;                                  ! Version Identifier

OS:SizingPeriod:DesignDay,
  {8e2d6300-3a2e-43b1-9fad-560cd8700223}, ! Handle
  Minot Faa Ap Ann Clg 2% Condns DP=>MDB, ! Name
  23.7,                                   ! Maximum Dry-Bulb Temperature {C}
  12.2,                                   ! Daily Dry-Bulb Temperature Range {deltaC}
  18.3,                                   ! Humidity Indicating Conditions at Maximum Dry-Bulb {BasedOnField A3}
  95198,                                  ! Barometric Pressure {Pa}
  5.8,                                    ! Wind Speed {m/s}
  160,                                    ! Wind Direction {deg}
  0,                                      ! Sky Clearness
  0,                                      ! Rain Indicator
  0,                                      ! Snow Indicator
  21,                                     ! Day of Month
  7,                                      ! Month
  SummerDesignDay,                        ! Day Type
  0,                                      ! Daylight Saving Time Indicator
  Dewpoint,                               ! Humidity Indicating Type
  ,                                       ! Humidity Indicating Day Schedule Name
  DefaultMultipliers,                     ! Dry-Bulb Temperature Range Modifier Type
  ,                                       ! Dry-Bulb Temperature Range Modifier Schedule Name
  ASHRAETau,                              ! Solar Model Indicator
  ,                                       ! Beam Solar Day Schedule Name
  ,                                       ! Diffuse Solar Day Schedule Name
  0.386,                                  ! ASHRAE Taub {dimensionless}
  2.249;                                  ! ASHRAE Taud {dimensionless}

OS:ComponentData,
  {12ae86ef-7cd8-480e-b651-990aa79e2739}, ! Handle
  Component Data 1,                       ! Name
  {e63eb143-ce09-4723-bb91-d0ac32e6b53a}, ! UUID
  {89e03af3-fef6-4952-adb0-ead660da98b8}, ! Version UUID
  1366309069,                             ! Creation Timestamp
  1366309069,                             ! Version Timestamp
  {8e2d6300-3a2e-43b1-9fad-560cd8700223}; ! Name of Object 1

