
OS:Version,
  {aa8a1924-418c-49c9-812c-0752b0c554fe}, ! Handle
  0.9.3;                                  ! Version Identifier

OS:SizingPeriod:DesignDay,
  {cf4912ef-3bcf-4959-a444-e7b85996dd4a}, ! Handle
  Sarasota Bradenton Ann Clg .4% Condns WB=>MDB, ! Name
  31.6,                                   ! Maximum Dry-Bulb Temperature {C}
  8.3,                                    ! Daily Dry-Bulb Temperature Range {deltaC}
  28.1,                                   ! Humidity Indicating Conditions at Maximum Dry-Bulb {BasedOnField A3}
  101205,                                 ! Barometric Pressure {Pa}
  4.1,                                    ! Wind Speed {m/s}
  270,                                    ! Wind Direction {deg}
  0,                                      ! Sky Clearness
  0,                                      ! Rain Indicator
  0,                                      ! Snow Indicator
  21,                                     ! Day of Month
  7,                                      ! Month
  SummerDesignDay,                        ! Day Type
  0,                                      ! Daylight Saving Time Indicator
  Wetbulb,                                ! Humidity Indicating Type
  ,                                       ! Humidity Indicating Day Schedule Name
  DefaultMultipliers,                     ! Dry-Bulb Temperature Range Modifier Type
  ,                                       ! Dry-Bulb Temperature Range Modifier Schedule Name
  ASHRAETau,                              ! Solar Model Indicator
  ,                                       ! Beam Solar Day Schedule Name
  ,                                       ! Diffuse Solar Day Schedule Name
  0.498,                                  ! ASHRAE Taub {dimensionless}
  1.995;                                  ! ASHRAE Taud {dimensionless}

