
OS:Version,
  {ff730ce8-992f-4dff-82de-46a3bc2b74ca}, ! Handle
  0.9.3;                                  ! Version Identifier

OS:SizingPeriod:DesignDay,
  {bbc1c034-1c0e-4dac-ab8f-312d0a108bca}, ! Handle
  Traverse City Cherry Capital Ann Clg 1% Condns DB=>MWB, ! Name
  29.9,                                   ! Maximum Dry-Bulb Temperature {C}
  11.8,                                   ! Daily Dry-Bulb Temperature Range {deltaC}
  21.1,                                   ! Humidity Indicating Conditions at Maximum Dry-Bulb {BasedOnField A3}
  99087,                                  ! Barometric Pressure {Pa}
  5.1,                                    ! Wind Speed {m/s}
  230,                                    ! Wind Direction {deg}
  0,                                      ! Sky Clearness
  0,                                      ! Rain Indicator
  0,                                      ! Snow Indicator
  21,                                     ! Day of Month
  7,                                      ! Month
  SummerDesignDay,                        ! Day Type
  0,                                      ! Daylight Saving Time Indicator
  Wetbulb,                                ! Humidity Indicating Type
  ,                                       ! Humidity Indicating Day Schedule Name
  DefaultMultipliers,                     ! Dry-Bulb Temperature Range Modifier Type
  ,                                       ! Dry-Bulb Temperature Range Modifier Schedule Name
  ASHRAETau,                              ! Solar Model Indicator
  ,                                       ! Beam Solar Day Schedule Name
  ,                                       ! Diffuse Solar Day Schedule Name
  0.422,                                  ! ASHRAE Taub {dimensionless}
  2.177;                                  ! ASHRAE Taud {dimensionless}

OS:ComponentData,
  {ad2a71a3-264f-4e14-815e-c7d45b513550}, ! Handle
  Component Data 1,                       ! Name
  {b2a33f11-a98a-4b4b-8a97-fc7015265d40}, ! UUID
  {e3ae374c-ad57-4711-bdc9-eae95a9d8559}, ! Version UUID
  1366308125,                             ! Creation Timestamp
  1366308125,                             ! Version Timestamp
  {bbc1c034-1c0e-4dac-ab8f-312d0a108bca}; ! Name of Object 1

