
OS:Version,
  {70480fff-5bab-44a6-98ec-ec0024df76f6}, ! Handle
  0.9.3;                                  ! Version Identifier

OS:SizingPeriod:DesignDay,
  {bc794a8b-c110-4d70-95f4-7c96d927f25d}, ! Handle
  Sacramento/Mather Fiel Ann Clg .4% Condns Enth=>MDB, ! Name
  35.4,                                   ! Maximum Dry-Bulb Temperature {C}
  18.1,                                   ! Daily Dry-Bulb Temperature Range {deltaC}
  66200,                                  ! Humidity Indicating Conditions at Maximum Dry-Bulb {BasedOnField A3}
  100977,                                 ! Barometric Pressure {Pa}
  3.4,                                    ! Wind Speed {m/s}
  220,                                    ! Wind Direction {deg}
  0,                                      ! Sky Clearness
  0,                                      ! Rain Indicator
  0,                                      ! Snow Indicator
  21,                                     ! Day of Month
  7,                                      ! Month
  SummerDesignDay,                        ! Day Type
  0,                                      ! Daylight Saving Time Indicator
  Enthalpy,                               ! Humidity Indicating Type
  ,                                       ! Humidity Indicating Day Schedule Name
  DefaultMultipliers,                     ! Dry-Bulb Temperature Range Modifier Type
  ,                                       ! Dry-Bulb Temperature Range Modifier Schedule Name
  ASHRAETau,                              ! Solar Model Indicator
  ,                                       ! Beam Solar Day Schedule Name
  ,                                       ! Diffuse Solar Day Schedule Name
  0.382,                                  ! ASHRAE Taub {dimensionless}
  2.325;                                  ! ASHRAE Taud {dimensionless}

OS:ComponentData,
  {b616bc39-f315-4092-969d-e6bb5aaa0c56}, ! Handle
  Component Data 1,                       ! Name
  {57d01f88-1e52-4051-87f4-2c4b6245a6d6}, ! UUID
  {b3401e7c-accc-444e-ab78-002ab9c8bd4b}, ! Version UUID
  1366306561,                             ! Creation Timestamp
  1366306561,                             ! Version Timestamp
  {bc794a8b-c110-4d70-95f4-7c96d927f25d}; ! Name of Object 1

