
OS:Version,
  {24e5bf8d-4b05-49c3-bd68-65ba5a766d02}, ! Handle
  0.9.3;                                  ! Version Identifier

OS:SizingPeriod:DesignDay,
  {16baa3b2-6e47-419c-97a4-047682034e2f}, ! Handle
  Port Arthur Jefferson County Ann Clg 2% Condns DB=>MWB, ! Name
  32.9,                                   ! Maximum Dry-Bulb Temperature {C}
  8.9,                                    ! Daily Dry-Bulb Temperature Range {deltaC}
  25.7,                                   ! Humidity Indicating Conditions at Maximum Dry-Bulb {BasedOnField A3}
  101265,                                 ! Barometric Pressure {Pa}
  3.6,                                    ! Wind Speed {m/s}
  200,                                    ! Wind Direction {deg}
  0,                                      ! Sky Clearness
  0,                                      ! Rain Indicator
  0,                                      ! Snow Indicator
  21,                                     ! Day of Month
  7,                                      ! Month
  SummerDesignDay,                        ! Day Type
  0,                                      ! Daylight Saving Time Indicator
  Wetbulb,                                ! Humidity Indicating Type
  ,                                       ! Humidity Indicating Day Schedule Name
  DefaultMultipliers,                     ! Dry-Bulb Temperature Range Modifier Type
  ,                                       ! Dry-Bulb Temperature Range Modifier Schedule Name
  ASHRAETau,                              ! Solar Model Indicator
  ,                                       ! Beam Solar Day Schedule Name
  ,                                       ! Diffuse Solar Day Schedule Name
  0.515,                                  ! ASHRAE Taub {dimensionless}
  1.943;                                  ! ASHRAE Taud {dimensionless}

OS:ComponentData,
  {4ca518f5-9363-400e-9cfa-7b52796b9ca1}, ! Handle
  Component Data 1,                       ! Name
  {33e28d98-25af-4508-b953-9b1736c0ec59}, ! UUID
  {ff849dd3-7992-4bf0-a4b4-104a512cb804}, ! Version UUID
  1366310856,                             ! Creation Timestamp
  1366310856,                             ! Version Timestamp
  {16baa3b2-6e47-419c-97a4-047682034e2f}; ! Name of Object 1

