
OS:Version,
  {75da0f80-19f1-47eb-8396-975c4cbd1055}, ! Handle
  0.9.3;                                  ! Version Identifier

OS:SizingPeriod:DesignDay,
  {81a70da5-c634-42e6-ad41-fb53403646cb}, ! Handle
  Southern Illinois Ann Clg .4% Condns DP=>MDB, ! Name
  30.4,                                   ! Maximum Dry-Bulb Temperature {C}
  10.4,                                   ! Daily Dry-Bulb Temperature Range {deltaC}
  26,                                     ! Humidity Indicating Conditions at Maximum Dry-Bulb {BasedOnField A3}
  99797,                                  ! Barometric Pressure {Pa}
  3.8,                                    ! Wind Speed {m/s}
  200,                                    ! Wind Direction {deg}
  0,                                      ! Sky Clearness
  0,                                      ! Rain Indicator
  0,                                      ! Snow Indicator
  21,                                     ! Day of Month
  7,                                      ! Month
  SummerDesignDay,                        ! Day Type
  0,                                      ! Daylight Saving Time Indicator
  Dewpoint,                               ! Humidity Indicating Type
  ,                                       ! Humidity Indicating Day Schedule Name
  DefaultMultipliers,                     ! Dry-Bulb Temperature Range Modifier Type
  ,                                       ! Dry-Bulb Temperature Range Modifier Schedule Name
  ASHRAETau,                              ! Solar Model Indicator
  ,                                       ! Beam Solar Day Schedule Name
  ,                                       ! Diffuse Solar Day Schedule Name
  0.488,                                  ! ASHRAE Taub {dimensionless}
  1.955;                                  ! ASHRAE Taud {dimensionless}

OS:ComponentData,
  {669043e8-a5e1-4593-aa12-c77d0b83c9e1}, ! Handle
  Component Data 1,                       ! Name
  {55280dc6-51c2-4fcc-a212-15ffbe346b09}, ! UUID
  {8d4f999e-0b4a-44a2-b568-c9eec3b34279}, ! Version UUID
  1366307331,                             ! Creation Timestamp
  1366307331,                             ! Version Timestamp
  {81a70da5-c634-42e6-ad41-fb53403646cb}; ! Name of Object 1

