
OS:Version,
  {6013c1e8-28e6-4d0f-9fa4-89af8447cd0c}, ! Handle
  0.9.3;                                  ! Version Identifier

OS:SizingPeriod:DesignDay,
  {8e443e75-c21b-4016-a6d9-87a769997813}, ! Handle
  Pawtucket  Awos Ann Htg 99% Condns DB,  ! Name
  -12.8,                                  ! Maximum Dry-Bulb Temperature {C}
  0,                                      ! Daily Dry-Bulb Temperature Range {deltaC}
  -12.8,                                  ! Humidity Indicating Conditions at Maximum Dry-Bulb {BasedOnField A3}
  99726,                                  ! Barometric Pressure {Pa}
  3.9,                                    ! Wind Speed {m/s}
  300,                                    ! Wind Direction {deg}
  0,                                      ! Sky Clearness
  0,                                      ! Rain Indicator
  0,                                      ! Snow Indicator
  21,                                     ! Day of Month
  1,                                      ! Month
  WinterDesignDay,                        ! Day Type
  0,                                      ! Daylight Saving Time Indicator
  Wetbulb,                                ! Humidity Indicating Type
  ,                                       ! Humidity Indicating Day Schedule Name
  DefaultMultipliers,                     ! Dry-Bulb Temperature Range Modifier Type
  ,                                       ! Dry-Bulb Temperature Range Modifier Schedule Name
  ASHRAEClearSky;                         ! Solar Model Indicator

OS:ComponentData,
  {8df6d310-8eda-4ea4-9520-e1a1769fffe4}, ! Handle
  Component Data 1,                       ! Name
  {b2e8dc80-3a2b-4c40-a830-8ac5033c2afc}, ! UUID
  {e8366764-9be3-4263-857c-186e8db09f3d}, ! Version UUID
  1366310292,                             ! Creation Timestamp
  1366310292,                             ! Version Timestamp
  {8e443e75-c21b-4016-a6d9-87a769997813}; ! Name of Object 1

