
OS:Version,
  {6bb8a3d5-99d7-47df-ade3-e477189106c7}, ! Handle
  0.9.3;                                  ! Version Identifier

OS:SizingPeriod:DesignDay,
  {548cc62b-ede7-4a2a-a61b-39965f3fdd6c}, ! Handle
  San Diego North Island Nas Ann Clg 1% Condns DP=>MDB, ! Name
  23.5,                                   ! Maximum Dry-Bulb Temperature {C}
  4.4,                                    ! Daily Dry-Bulb Temperature Range {deltaC}
  20,                                     ! Humidity Indicating Conditions at Maximum Dry-Bulb {BasedOnField A3}
  101145,                                 ! Barometric Pressure {Pa}
  3.9,                                    ! Wind Speed {m/s}
  310,                                    ! Wind Direction {deg}
  0,                                      ! Sky Clearness
  0,                                      ! Rain Indicator
  0,                                      ! Snow Indicator
  21,                                     ! Day of Month
  8,                                      ! Month
  SummerDesignDay,                        ! Day Type
  0,                                      ! Daylight Saving Time Indicator
  Dewpoint,                               ! Humidity Indicating Type
  ,                                       ! Humidity Indicating Day Schedule Name
  DefaultMultipliers,                     ! Dry-Bulb Temperature Range Modifier Type
  ,                                       ! Dry-Bulb Temperature Range Modifier Schedule Name
  ASHRAETau,                              ! Solar Model Indicator
  ,                                       ! Beam Solar Day Schedule Name
  ,                                       ! Diffuse Solar Day Schedule Name
  0.425,                                  ! ASHRAE Taub {dimensionless}
  2.218;                                  ! ASHRAE Taud {dimensionless}

OS:ComponentData,
  {28fdc404-66aa-4b9c-a4a7-4d7bed7d5658}, ! Handle
  Component Data 1,                       ! Name
  {54a336cc-11d0-438b-8772-2a9a7f87b222}, ! UUID
  {d5af0b23-3f76-45b4-ad3c-6a490d052ef8}, ! Version UUID
  1366306583,                             ! Creation Timestamp
  1366306583,                             ! Version Timestamp
  {548cc62b-ede7-4a2a-a61b-39965f3fdd6c}; ! Name of Object 1

