
OS:Version,
  {678b724e-ade3-4eba-86a0-61331aee471a}, ! Handle
  0.9.3;                                  ! Version Identifier

OS:SizingPeriod:DesignDay,
  {c3e308fc-09fe-4d80-b98f-26c2c5684af2}, ! Handle
  Provincetown  Awos Ann Hum_n 99% Condns DP=>MCDB, ! Name
  2.5,                                    ! Maximum Dry-Bulb Temperature {C}
  0,                                      ! Daily Dry-Bulb Temperature Range {deltaC}
  -24.1,                                  ! Humidity Indicating Conditions at Maximum Dry-Bulb {BasedOnField A3}
  101301,                                 ! Barometric Pressure {Pa}
  7.7,                                    ! Wind Speed {m/s}
  330,                                    ! Wind Direction {deg}
  0,                                      ! Sky Clearness
  0,                                      ! Rain Indicator
  0,                                      ! Snow Indicator
  21,                                     ! Day of Month
  2,                                      ! Month
  WinterDesignDay,                        ! Day Type
  0,                                      ! Daylight Saving Time Indicator
  Dewpoint,                               ! Humidity Indicating Type
  ,                                       ! Humidity Indicating Day Schedule Name
  DefaultMultipliers,                     ! Dry-Bulb Temperature Range Modifier Type
  ,                                       ! Dry-Bulb Temperature Range Modifier Schedule Name
  ASHRAEClearSky;                         ! Solar Model Indicator

OS:ComponentData,
  {a010d027-137b-4ea8-ada1-20d7e556d435}, ! Handle
  Component Data 1,                       ! Name
  {f8f41f0a-52c4-4821-94f6-1cce301f81a7}, ! UUID
  {618cd024-6894-4ecf-88c7-66d3c78cc7ad}, ! Version UUID
  1366307821,                             ! Creation Timestamp
  1366307821,                             ! Version Timestamp
  {c3e308fc-09fe-4d80-b98f-26c2c5684af2}; ! Name of Object 1

