
OS:Version,
  {1af8c3bd-41d0-4a9e-9aa1-02d17a937749}, ! Handle
  0.9.3;                                  ! Version Identifier

OS:SizingPeriod:DesignDay,
  {7cdf80c7-d2c2-41c2-9741-1b23db94e2a9}, ! Handle
  NEW_ORLEANS Ann Clg 2% Condns DP=>MDB,  ! Name
  28.9,                                   ! Maximum Dry-Bulb Temperature {C}
  6.6,                                    ! Daily Dry-Bulb Temperature Range {deltaC}
  25.2,                                   ! Humidity Indicating Conditions at Maximum Dry-Bulb {BasedOnField A3}
  101289,                                 ! Barometric Pressure {Pa}
  3.8,                                    ! Wind Speed {m/s}
  320,                                    ! Wind Direction {deg}
  0,                                      ! Sky Clearness
  0,                                      ! Rain Indicator
  0,                                      ! Snow Indicator
  21,                                     ! Day of Month
  8,                                      ! Month
  SummerDesignDay,                        ! Day Type
  0,                                      ! Daylight Saving Time Indicator
  Dewpoint,                               ! Humidity Indicating Type
  ,                                       ! Humidity Indicating Day Schedule Name
  DefaultMultipliers,                     ! Dry-Bulb Temperature Range Modifier Type
  ,                                       ! Dry-Bulb Temperature Range Modifier Schedule Name
  ASHRAETau,                              ! Solar Model Indicator
  ,                                       ! Beam Solar Day Schedule Name
  ,                                       ! Diffuse Solar Day Schedule Name
  0.551,                                  ! ASHRAE Taub {dimensionless}
  1.829;                                  ! ASHRAE Taud {dimensionless}

OS:ComponentData,
  {6db67cad-b0f9-4a25-8b3f-fa6a6ec67a80}, ! Handle
  Component Data 1,                       ! Name
  {8679defb-e527-4278-804b-4a3ae1ab60e6}, ! UUID
  {abb4615f-e2a2-4b4b-99bd-0a83016656a5}, ! Version UUID
  1366307748,                             ! Creation Timestamp
  1366307748,                             ! Version Timestamp
  {7cdf80c7-d2c2-41c2-9741-1b23db94e2a9}; ! Name of Object 1

