
OS:Version,
  {dbf66031-2d9b-4416-84a2-ddb26ec801ca}, ! Handle
  0.9.3;                                  ! Version Identifier

OS:SizingPeriod:DesignDay,
  {2b6f1f8a-cebc-4cd0-b80b-a34c57cc4176}, ! Handle
  Palacios Municipal Ap Ann Hum_n 99% Condns DP=>MCDB, ! Name
  5.9,                                    ! Maximum Dry-Bulb Temperature {C}
  0,                                      ! Daily Dry-Bulb Temperature Range {deltaC}
  -3.2,                                   ! Humidity Indicating Conditions at Maximum Dry-Bulb {BasedOnField A3}
  101265,                                 ! Barometric Pressure {Pa}
  5.7,                                    ! Wind Speed {m/s}
  0,                                      ! Wind Direction {deg}
  0,                                      ! Sky Clearness
  0,                                      ! Rain Indicator
  0,                                      ! Snow Indicator
  21,                                     ! Day of Month
  1,                                      ! Month
  WinterDesignDay,                        ! Day Type
  0,                                      ! Daylight Saving Time Indicator
  Dewpoint,                               ! Humidity Indicating Type
  ,                                       ! Humidity Indicating Day Schedule Name
  DefaultMultipliers,                     ! Dry-Bulb Temperature Range Modifier Type
  ,                                       ! Dry-Bulb Temperature Range Modifier Schedule Name
  ASHRAEClearSky;                         ! Solar Model Indicator

OS:ComponentData,
  {5110b977-2acf-41e7-b44f-fd166c628228}, ! Handle
  Component Data 1,                       ! Name
  {517877f0-357c-4c2d-9d67-9a53cfa9b2c2}, ! UUID
  {d49c3b05-9de0-4104-a17b-0003fffa7235}, ! Version UUID
  1366310844,                             ! Creation Timestamp
  1366310844,                             ! Version Timestamp
  {2b6f1f8a-cebc-4cd0-b80b-a34c57cc4176}; ! Name of Object 1

