
OS:Version,
  {ca0c05bb-d418-4f54-87de-310055a9084d}, ! Handle
  0.9.3;                                  ! Version Identifier

OS:SizingPeriod:DesignDay,
  {ce3cb5e3-d096-43c9-b84c-fc26c5ac5aeb}, ! Handle
  Pitt Greenville Arp Ann Clg 2% Condns DP=>MDB, ! Name
  27.9,                                   ! Maximum Dry-Bulb Temperature {C}
  10.1,                                   ! Daily Dry-Bulb Temperature Range {deltaC}
  22.8,                                   ! Humidity Indicating Conditions at Maximum Dry-Bulb {BasedOnField A3}
  101229,                                 ! Barometric Pressure {Pa}
  3.1,                                    ! Wind Speed {m/s}
  260,                                    ! Wind Direction {deg}
  0,                                      ! Sky Clearness
  0,                                      ! Rain Indicator
  0,                                      ! Snow Indicator
  21,                                     ! Day of Month
  7,                                      ! Month
  SummerDesignDay,                        ! Day Type
  0,                                      ! Daylight Saving Time Indicator
  Dewpoint,                               ! Humidity Indicating Type
  ,                                       ! Humidity Indicating Day Schedule Name
  DefaultMultipliers,                     ! Dry-Bulb Temperature Range Modifier Type
  ,                                       ! Dry-Bulb Temperature Range Modifier Schedule Name
  ASHRAETau,                              ! Solar Model Indicator
  ,                                       ! Beam Solar Day Schedule Name
  ,                                       ! Diffuse Solar Day Schedule Name
  0.601,                                  ! ASHRAE Taub {dimensionless}
  1.675;                                  ! ASHRAE Taud {dimensionless}

OS:ComponentData,
  {92191616-8ba3-42aa-91e7-48dee5e251be}, ! Handle
  Component Data 1,                       ! Name
  {418f1aa6-e5c6-4f18-a228-fe2f68ae5c2f}, ! UUID
  {a5d3063c-a349-4301-abd8-54b0217c72bc}, ! Version UUID
  1366308962,                             ! Creation Timestamp
  1366308962,                             ! Version Timestamp
  {ce3cb5e3-d096-43c9-b84c-fc26c5ac5aeb}; ! Name of Object 1

