
OS:Version,
  {997f867d-3387-4995-a1f8-486dd9ba4dea}, ! Handle
  0.9.3;                                  ! Version Identifier

OS:SizingPeriod:DesignDay,
  {681f03b2-8081-48b6-b5b4-69fa9574fcbc}, ! Handle
  Sanford Muni  Awos Ann Clg .4% Condns DB=>MWB, ! Name
  31.4,                                   ! Maximum Dry-Bulb Temperature {C}
  12.6,                                   ! Daily Dry-Bulb Temperature Range {deltaC}
  21.2,                                   ! Humidity Indicating Conditions at Maximum Dry-Bulb {BasedOnField A3}
  100439,                                 ! Barometric Pressure {Pa}
  3.9,                                    ! Wind Speed {m/s}
  230,                                    ! Wind Direction {deg}
  0,                                      ! Sky Clearness
  0,                                      ! Rain Indicator
  0,                                      ! Snow Indicator
  21,                                     ! Day of Month
  7,                                      ! Month
  SummerDesignDay,                        ! Day Type
  0,                                      ! Daylight Saving Time Indicator
  Wetbulb,                                ! Humidity Indicating Type
  ,                                       ! Humidity Indicating Day Schedule Name
  DefaultMultipliers,                     ! Dry-Bulb Temperature Range Modifier Type
  ,                                       ! Dry-Bulb Temperature Range Modifier Schedule Name
  ASHRAETau,                              ! Solar Model Indicator
  ,                                       ! Beam Solar Day Schedule Name
  ,                                       ! Diffuse Solar Day Schedule Name
  0.471,                                  ! ASHRAE Taub {dimensionless}
  1.98;                                   ! ASHRAE Taud {dimensionless}

OS:ComponentData,
  {4992638f-2f8d-44f9-959f-5d413215d075}, ! Handle
  Component Data 1,                       ! Name
  {48ed5b58-f07a-4c32-a213-e7bada594aaf}, ! UUID
  {0afcc679-1b9b-4cf8-b46c-3897c6becbd3}, ! Version UUID
  1366307926,                             ! Creation Timestamp
  1366307926,                             ! Version Timestamp
  {681f03b2-8081-48b6-b5b4-69fa9574fcbc}; ! Name of Object 1

