
OS:Version,
  {e206e401-4ef7-4517-9ba2-32f91881a0ef}, ! Handle
  0.9.3;                                  ! Version Identifier

OS:SizingPeriod:DesignDay,
  {9e95cf06-453d-4e3c-9a53-9e0048d7631b}, ! Handle
  March Afb Ann Clg .4% Condns DP=>MDB,   ! Name
  25.2,                                   ! Maximum Dry-Bulb Temperature {C}
  16.6,                                   ! Daily Dry-Bulb Temperature Range {deltaC}
  19.1,                                   ! Humidity Indicating Conditions at Maximum Dry-Bulb {BasedOnField A3}
  95897,                                  ! Barometric Pressure {Pa}
  4.2,                                    ! Wind Speed {m/s}
  300,                                    ! Wind Direction {deg}
  0,                                      ! Sky Clearness
  0,                                      ! Rain Indicator
  0,                                      ! Snow Indicator
  21,                                     ! Day of Month
  8,                                      ! Month
  SummerDesignDay,                        ! Day Type
  0,                                      ! Daylight Saving Time Indicator
  Dewpoint,                               ! Humidity Indicating Type
  ,                                       ! Humidity Indicating Day Schedule Name
  DefaultMultipliers,                     ! Dry-Bulb Temperature Range Modifier Type
  ,                                       ! Dry-Bulb Temperature Range Modifier Schedule Name
  ASHRAETau,                              ! Solar Model Indicator
  ,                                       ! Beam Solar Day Schedule Name
  ,                                       ! Diffuse Solar Day Schedule Name
  0.426,                                  ! ASHRAE Taub {dimensionless}
  2.105;                                  ! ASHRAE Taud {dimensionless}

OS:ComponentData,
  {289b4f49-d1eb-4fc6-8057-5beac6568313}, ! Handle
  Component Data 1,                       ! Name
  {f275d56e-5bb3-4cbd-b4c6-60ab830b8cac}, ! UUID
  {bcf926e6-7cdc-4197-aff0-dbf76930c47d}, ! Version UUID
  1366306487,                             ! Creation Timestamp
  1366306487,                             ! Version Timestamp
  {9e95cf06-453d-4e3c-9a53-9e0048d7631b}; ! Name of Object 1

