
OS:Version,
  {dc292e8d-325e-4e69-a76e-c47cdd328e68}, ! Handle
  0.9.3;                                  ! Version Identifier

OS:SizingPeriod:DesignDay,
  {2c04d3b2-bb6f-4c6a-bd64-4b2d04325e4c}, ! Handle
  Tonopah Airport Ann Htg Wind 99.6% Condns WS=>MCDB, ! Name
  1.9,                                    ! Maximum Dry-Bulb Temperature {C}
  0,                                      ! Daily Dry-Bulb Temperature Range {deltaC}
  1.9,                                    ! Humidity Indicating Conditions at Maximum Dry-Bulb {BasedOnField A3}
  82960,                                  ! Barometric Pressure {Pa}
  12.8,                                   ! Wind Speed {m/s}
  350,                                    ! Wind Direction {deg}
  0,                                      ! Sky Clearness
  0,                                      ! Rain Indicator
  0,                                      ! Snow Indicator
  21,                                     ! Day of Month
  12,                                     ! Month
  WinterDesignDay,                        ! Day Type
  0,                                      ! Daylight Saving Time Indicator
  Wetbulb,                                ! Humidity Indicating Type
  ,                                       ! Humidity Indicating Day Schedule Name
  DefaultMultipliers,                     ! Dry-Bulb Temperature Range Modifier Type
  ,                                       ! Dry-Bulb Temperature Range Modifier Schedule Name
  ASHRAEClearSky;                         ! Solar Model Indicator

OS:ComponentData,
  {0ccf8294-26ef-4d6e-b137-cbb3aafc017e}, ! Handle
  Component Data 1,                       ! Name
  {c7fe3132-452d-4f19-8108-03d376672b6a}, ! UUID
  {2929c8e1-3f70-4a28-a5d0-769eba79ad3a}, ! Version UUID
  1366309554,                             ! Creation Timestamp
  1366309554,                             ! Version Timestamp
  {2c04d3b2-bb6f-4c6a-bd64-4b2d04325e4c}; ! Name of Object 1

