
OS:Version,
  {6a6ad10a-bd2f-4c47-863b-85da15912bd2}, ! Handle
  0.9.3;                                  ! Version Identifier

OS:SizingPeriod:DesignDay,
  {58bd6dde-9efe-43c7-ae53-43396420a353}, ! Handle
  San Angelo Mathis Field Ann Clg 1% Condns WB=>MDB, ! Name
  31,                                     ! Maximum Dry-Bulb Temperature {C}
  12.8,                                   ! Daily Dry-Bulb Temperature Range {deltaC}
  23.4,                                   ! Humidity Indicating Conditions at Maximum Dry-Bulb {BasedOnField A3}
  94503,                                  ! Barometric Pressure {Pa}
  4.9,                                    ! Wind Speed {m/s}
  170,                                    ! Wind Direction {deg}
  0,                                      ! Sky Clearness
  0,                                      ! Rain Indicator
  0,                                      ! Snow Indicator
  21,                                     ! Day of Month
  7,                                      ! Month
  SummerDesignDay,                        ! Day Type
  0,                                      ! Daylight Saving Time Indicator
  Wetbulb,                                ! Humidity Indicating Type
  ,                                       ! Humidity Indicating Day Schedule Name
  DefaultMultipliers,                     ! Dry-Bulb Temperature Range Modifier Type
  ,                                       ! Dry-Bulb Temperature Range Modifier Schedule Name
  ASHRAETau,                              ! Solar Model Indicator
  ,                                       ! Beam Solar Day Schedule Name
  ,                                       ! Diffuse Solar Day Schedule Name
  0.454,                                  ! ASHRAE Taub {dimensionless}
  2.053;                                  ! ASHRAE Taud {dimensionless}

OS:ComponentData,
  {af488883-83b2-4cb7-a526-4e50f32b0d8f}, ! Handle
  Component Data 1,                       ! Name
  {79c1e89b-12bf-4b6c-81b8-612f647291f1}, ! UUID
  {959ff487-31f1-4cd3-9f5d-20d4cc07b34f}, ! Version UUID
  1366310873,                             ! Creation Timestamp
  1366310873,                             ! Version Timestamp
  {58bd6dde-9efe-43c7-ae53-43396420a353}; ! Name of Object 1

