
OS:Version,
  {b0ef31ff-30cb-455b-a685-8b2c33d913db}, ! Handle
  0.9.3;                                  ! Version Identifier

OS:SizingPeriod:DesignDay,
  {e4758049-6ee2-4650-b07d-12ba6d25adfa}, ! Handle
  Salmon Lemhi  Awos Ann Clg 1% Condns DB=>MWB, ! Name
  30.9,                                   ! Maximum Dry-Bulb Temperature {C}
  18.2,                                   ! Daily Dry-Bulb Temperature Range {deltaC}
  15.8,                                   ! Humidity Indicating Conditions at Maximum Dry-Bulb {BasedOnField A3}
  87363,                                  ! Barometric Pressure {Pa}
  3.7,                                    ! Wind Speed {m/s}
  330,                                    ! Wind Direction {deg}
  0,                                      ! Sky Clearness
  0,                                      ! Rain Indicator
  0,                                      ! Snow Indicator
  21,                                     ! Day of Month
  7,                                      ! Month
  SummerDesignDay,                        ! Day Type
  0,                                      ! Daylight Saving Time Indicator
  Wetbulb,                                ! Humidity Indicating Type
  ,                                       ! Humidity Indicating Day Schedule Name
  DefaultMultipliers,                     ! Dry-Bulb Temperature Range Modifier Type
  ,                                       ! Dry-Bulb Temperature Range Modifier Schedule Name
  ASHRAETau,                              ! Solar Model Indicator
  ,                                       ! Beam Solar Day Schedule Name
  ,                                       ! Diffuse Solar Day Schedule Name
  0.376,                                  ! ASHRAE Taub {dimensionless}
  2.269;                                  ! ASHRAE Taud {dimensionless}

OS:ComponentData,
  {bc94e546-a5a9-47b7-a01a-576b2d6387d6}, ! Handle
  Component Data 1,                       ! Name
  {b667d473-e229-40b8-a189-567c73faf3bf}, ! UUID
  {1e98bf30-cad2-487b-a175-2f5df184d855}, ! Version UUID
  1366307311,                             ! Creation Timestamp
  1366307311,                             ! Version Timestamp
  {e4758049-6ee2-4650-b07d-12ba6d25adfa}; ! Name of Object 1

