
OS:Version,
  {efb1ca60-736b-4325-9b3e-9c7876573d80}, ! Handle
  0.9.3;                                  ! Version Identifier

OS:SizingPeriod:DesignDay,
  {eccd761c-9d9c-4ee7-b8bf-718dc047abd5}, ! Handle
  Valdez Pioneer Fiel Ann Clg 2% Condns DB=>MWB, ! Name
  17.7,                                   ! Maximum Dry-Bulb Temperature {C}
  7,                                      ! Daily Dry-Bulb Temperature Range {deltaC}
  12.2,                                   ! Humidity Indicating Conditions at Maximum Dry-Bulb {BasedOnField A3}
  100869,                                 ! Barometric Pressure {Pa}
  3.6,                                    ! Wind Speed {m/s}
  260,                                    ! Wind Direction {deg}
  0,                                      ! Sky Clearness
  0,                                      ! Rain Indicator
  0,                                      ! Snow Indicator
  21,                                     ! Day of Month
  7,                                      ! Month
  SummerDesignDay,                        ! Day Type
  0,                                      ! Daylight Saving Time Indicator
  Wetbulb,                                ! Humidity Indicating Type
  ,                                       ! Humidity Indicating Day Schedule Name
  DefaultMultipliers,                     ! Dry-Bulb Temperature Range Modifier Type
  ,                                       ! Dry-Bulb Temperature Range Modifier Schedule Name
  ASHRAETau,                              ! Solar Model Indicator
  ,                                       ! Beam Solar Day Schedule Name
  ,                                       ! Diffuse Solar Day Schedule Name
  0.405,                                  ! ASHRAE Taub {dimensionless}
  2.035;                                  ! ASHRAE Taud {dimensionless}

OS:ComponentData,
  {f7f1c173-867c-4284-ad78-cbd4f162bb83}, ! Handle
  Component Data 1,                       ! Name
  {b1709c5d-bc5f-4032-99be-343545714ca5}, ! UUID
  {a692874e-65bf-4cca-bcd3-f91ad40ea841}, ! Version UUID
  1366305605,                             ! Creation Timestamp
  1366305605,                             ! Version Timestamp
  {eccd761c-9d9c-4ee7-b8bf-718dc047abd5}; ! Name of Object 1

