
OS:Version,
  {de991514-ba20-4a17-a19c-2d04a6f43d9e}, ! Handle
  0.9.3;                                  ! Version Identifier

OS:SizingPeriod:DesignDay,
  {1d86ce3f-d999-4eb3-a578-4f700d3ce159}, ! Handle
  SIOUX_FALLS Ann Htg Wind 99.6% Condns WS=>MCDB, ! Name
  -10.9,                                  ! Maximum Dry-Bulb Temperature {C}
  0,                                      ! Daily Dry-Bulb Temperature Range {deltaC}
  -10.9,                                  ! Humidity Indicating Conditions at Maximum Dry-Bulb {BasedOnField A3}
  96207,                                  ! Barometric Pressure {Pa}
  14.9,                                   ! Wind Speed {m/s}
  300,                                    ! Wind Direction {deg}
  0,                                      ! Sky Clearness
  0,                                      ! Rain Indicator
  0,                                      ! Snow Indicator
  21,                                     ! Day of Month
  1,                                      ! Month
  WinterDesignDay,                        ! Day Type
  0,                                      ! Daylight Saving Time Indicator
  Wetbulb,                                ! Humidity Indicating Type
  ,                                       ! Humidity Indicating Day Schedule Name
  DefaultMultipliers,                     ! Dry-Bulb Temperature Range Modifier Type
  ,                                       ! Dry-Bulb Temperature Range Modifier Schedule Name
  ASHRAEClearSky;                         ! Solar Model Indicator

OS:ComponentData,
  {175f1212-c855-4b52-b900-77fbdf42d415}, ! Handle
  Component Data 1,                       ! Name
  {befabb8b-cfd6-4d7e-a0c6-67976ae98493}, ! UUID
  {8b09528c-1305-45c6-913b-7251c2bfa60c}, ! Version UUID
  1366310463,                             ! Creation Timestamp
  1366310463,                             ! Version Timestamp
  {1d86ce3f-d999-4eb3-a578-4f700d3ce159}; ! Name of Object 1

