
OS:Version,
  {c107482c-878a-40b0-834e-c49b7585ae4e}, ! Handle
  0.9.3;                                  ! Version Identifier

OS:SizingPeriod:DesignDay,
  {a56cb277-2c7b-4b9c-9ac7-07a3c5103952}, ! Handle
  San Antonio Stinson Ann Hum_n 99% Condns DP=>MCDB, ! Name
  9.6,                                    ! Maximum Dry-Bulb Temperature {C}
  0,                                      ! Daily Dry-Bulb Temperature Range {deltaC}
  -8.1,                                   ! Humidity Indicating Conditions at Maximum Dry-Bulb {BasedOnField A3}
  99228,                                  ! Barometric Pressure {Pa}
  2.1,                                    ! Wind Speed {m/s}
  10,                                     ! Wind Direction {deg}
  0,                                      ! Sky Clearness
  0,                                      ! Rain Indicator
  0,                                      ! Snow Indicator
  21,                                     ! Day of Month
  12,                                     ! Month
  WinterDesignDay,                        ! Day Type
  0,                                      ! Daylight Saving Time Indicator
  Dewpoint,                               ! Humidity Indicating Type
  ,                                       ! Humidity Indicating Day Schedule Name
  DefaultMultipliers,                     ! Dry-Bulb Temperature Range Modifier Type
  ,                                       ! Dry-Bulb Temperature Range Modifier Schedule Name
  ASHRAEClearSky;                         ! Solar Model Indicator

OS:ComponentData,
  {1a5060e4-83c1-48b8-875c-a527a395bf0d}, ! Handle
  Component Data 1,                       ! Name
  {3f2bf9af-a942-4af9-8321-50cdc7376bf9}, ! UUID
  {feaa2cdd-a781-489b-897d-dec59fdfd610}, ! Version UUID
  1366310885,                             ! Creation Timestamp
  1366310885,                             ! Version Timestamp
  {a56cb277-2c7b-4b9c-9ac7-07a3c5103952}; ! Name of Object 1

