
OS:Version,
  {17c54fad-f516-4e01-8f16-e51b1dfd9d90}, ! Handle
  0.9.3;                                  ! Version Identifier

OS:SizingPeriod:DesignDay,
  {1f8f2895-4a07-42b0-aa64-7fd825bda61b}, ! Handle
  Moline/Davenport IA Ann Clg 1% Condns WB=>MDB, ! Name
  30.8,                                   ! Maximum Dry-Bulb Temperature {C}
  11.1,                                   ! Daily Dry-Bulb Temperature Range {deltaC}
  25.2,                                   ! Humidity Indicating Conditions at Maximum Dry-Bulb {BasedOnField A3}
  99169,                                  ! Barometric Pressure {Pa}
  4.9,                                    ! Wind Speed {m/s}
  210,                                    ! Wind Direction {deg}
  0,                                      ! Sky Clearness
  0,                                      ! Rain Indicator
  0,                                      ! Snow Indicator
  21,                                     ! Day of Month
  7,                                      ! Month
  SummerDesignDay,                        ! Day Type
  0,                                      ! Daylight Saving Time Indicator
  Wetbulb,                                ! Humidity Indicating Type
  ,                                       ! Humidity Indicating Day Schedule Name
  DefaultMultipliers,                     ! Dry-Bulb Temperature Range Modifier Type
  ,                                       ! Dry-Bulb Temperature Range Modifier Schedule Name
  ASHRAETau,                              ! Solar Model Indicator
  ,                                       ! Beam Solar Day Schedule Name
  ,                                       ! Diffuse Solar Day Schedule Name
  0.449,                                  ! ASHRAE Taub {dimensionless}
  2.068;                                  ! ASHRAE Taud {dimensionless}

OS:ComponentData,
  {0e6a7bb3-709e-4b99-88a3-d68b94cc021f}, ! Handle
  Component Data 1,                       ! Name
  {593ea572-9919-4591-b619-f04b0450f730}, ! UUID
  {0d204301-5fd6-4560-9804-e91818f39bdd}, ! Version UUID
  1366307364,                             ! Creation Timestamp
  1366307364,                             ! Version Timestamp
  {1f8f2895-4a07-42b0-aa64-7fd825bda61b}; ! Name of Object 1

