
OS:Version,
  {26c55a96-bfb2-45dc-8f4c-769218c0ec93}, ! Handle
  0.9.3;                                  ! Version Identifier

OS:SizingPeriod:DesignDay,
  {fe1db806-7077-4a8c-aebc-6a12ec099a64}, ! Handle
  Mountain View Moffett Fld Nas Ann Clg 2% Condns DB=>MWB, ! Name
  27,                                     ! Maximum Dry-Bulb Temperature {C}
  9.5,                                    ! Daily Dry-Bulb Temperature Range {deltaC}
  17.9,                                   ! Humidity Indicating Conditions at Maximum Dry-Bulb {BasedOnField A3}
  101181,                                 ! Barometric Pressure {Pa}
  3.9,                                    ! Wind Speed {m/s}
  340,                                    ! Wind Direction {deg}
  0,                                      ! Sky Clearness
  0,                                      ! Rain Indicator
  0,                                      ! Snow Indicator
  21,                                     ! Day of Month
  7,                                      ! Month
  SummerDesignDay,                        ! Day Type
  0,                                      ! Daylight Saving Time Indicator
  Wetbulb,                                ! Humidity Indicating Type
  ,                                       ! Humidity Indicating Day Schedule Name
  DefaultMultipliers,                     ! Dry-Bulb Temperature Range Modifier Type
  ,                                       ! Dry-Bulb Temperature Range Modifier Schedule Name
  ASHRAETau,                              ! Solar Model Indicator
  ,                                       ! Beam Solar Day Schedule Name
  ,                                       ! Diffuse Solar Day Schedule Name
  0.378,                                  ! ASHRAE Taub {dimensionless}
  2.37;                                   ! ASHRAE Taud {dimensionless}

OS:ComponentData,
  {4fda9954-c26d-4298-af53-e49fa1542bba}, ! Handle
  Component Data 1,                       ! Name
  {5ed4e415-56a0-49ca-94b0-dc6e8af5055e}, ! UUID
  {dae1613d-be31-45f3-9548-c77945fc065c}, ! Version UUID
  1366306513,                             ! Creation Timestamp
  1366306513,                             ! Version Timestamp
  {fe1db806-7077-4a8c-aebc-6a12ec099a64}; ! Name of Object 1

