
OS:Version,
  {f99f411c-69b3-4fc2-93bf-ad0493f5e676}, ! Handle
  0.9.3;                                  ! Version Identifier

OS:SizingPeriod:DesignDay,
  {b9df745d-833d-44a0-aeab-6fb20f352ed5}, ! Handle
  Wichita Falls Municipal Arpt Ann Clg 2% Condns Enth=>MDB, ! Name
  32.2,                                   ! Maximum Dry-Bulb Temperature {C}
  13,                                     ! Daily Dry-Bulb Temperature Range {deltaC}
  74600,                                  ! Humidity Indicating Conditions at Maximum Dry-Bulb {BasedOnField A3}
  97609,                                  ! Barometric Pressure {Pa}
  5.5,                                    ! Wind Speed {m/s}
  180,                                    ! Wind Direction {deg}
  0,                                      ! Sky Clearness
  0,                                      ! Rain Indicator
  0,                                      ! Snow Indicator
  21,                                     ! Day of Month
  7,                                      ! Month
  SummerDesignDay,                        ! Day Type
  0,                                      ! Daylight Saving Time Indicator
  Enthalpy,                               ! Humidity Indicating Type
  ,                                       ! Humidity Indicating Day Schedule Name
  DefaultMultipliers,                     ! Dry-Bulb Temperature Range Modifier Type
  ,                                       ! Dry-Bulb Temperature Range Modifier Schedule Name
  ASHRAETau,                              ! Solar Model Indicator
  ,                                       ! Beam Solar Day Schedule Name
  ,                                       ! Diffuse Solar Day Schedule Name
  0.44,                                   ! ASHRAE Taub {dimensionless}
  2.15;                                   ! ASHRAE Taud {dimensionless}

OS:ComponentData,
  {7f4e8cde-b2da-44d4-8148-ee6284edf6db}, ! Handle
  Component Data 1,                       ! Name
  {c135022d-eb73-4c0b-961e-4930af5459d4}, ! UUID
  {2727a74c-9eb6-4503-96af-d3da745504d0}, ! Version UUID
  1366310937,                             ! Creation Timestamp
  1366310937,                             ! Version Timestamp
  {b9df745d-833d-44a0-aeab-6fb20f352ed5}; ! Name of Object 1

