
OS:Version,
  {f6bda17b-90e3-4f40-a602-a1173ad53638}, ! Handle
  0.9.3;                                  ! Version Identifier

OS:SizingPeriod:DesignDay,
  {fc4d6376-9aa9-4ca4-abf1-f1901381b0b4}, ! Handle
  Wichita Col  Jabara Ann Clg .4% Condns DP=>MDB, ! Name
  28.4,                                   ! Maximum Dry-Bulb Temperature {C}
  12,                                     ! Daily Dry-Bulb Temperature Range {deltaC}
  22.9,                                   ! Humidity Indicating Conditions at Maximum Dry-Bulb {BasedOnField A3}
  96230,                                  ! Barometric Pressure {Pa}
  6.2,                                    ! Wind Speed {m/s}
  180,                                    ! Wind Direction {deg}
  0,                                      ! Sky Clearness
  0,                                      ! Rain Indicator
  0,                                      ! Snow Indicator
  21,                                     ! Day of Month
  7,                                      ! Month
  SummerDesignDay,                        ! Day Type
  0,                                      ! Daylight Saving Time Indicator
  Dewpoint,                               ! Humidity Indicating Type
  ,                                       ! Humidity Indicating Day Schedule Name
  DefaultMultipliers,                     ! Dry-Bulb Temperature Range Modifier Type
  ,                                       ! Dry-Bulb Temperature Range Modifier Schedule Name
  ASHRAETau,                              ! Solar Model Indicator
  ,                                       ! Beam Solar Day Schedule Name
  ,                                       ! Diffuse Solar Day Schedule Name
  0.418,                                  ! ASHRAE Taub {dimensionless}
  2.21;                                   ! ASHRAE Taud {dimensionless}

OS:ComponentData,
  {0cae820f-831a-4b1a-8054-f2b8eda407a2}, ! Handle
  Component Data 1,                       ! Name
  {2285fd0a-0ba5-4121-809c-7e0494110b15}, ! UUID
  {96b5ebd9-defc-4995-8c5d-54fd65a0cf2a}, ! Version UUID
  1366307596,                             ! Creation Timestamp
  1366307596,                             ! Version Timestamp
  {fc4d6376-9aa9-4ca4-abf1-f1901381b0b4}; ! Name of Object 1

