
OS:Version,
  {71fe362e-728f-429e-bdf0-d2550e47fd3a}, ! Handle
  0.9.3;                                  ! Version Identifier

OS:SizingPeriod:DesignDay,
  {1984d30d-caef-4ba3-b3d8-967641a25097}, ! Handle
  Two Harbors Ann Htg 99.6% Condns DB,    ! Name
  -27.1,                                  ! Maximum Dry-Bulb Temperature {C}
  0,                                      ! Daily Dry-Bulb Temperature Range {deltaC}
  -27.1,                                  ! Humidity Indicating Conditions at Maximum Dry-Bulb {BasedOnField A3}
  97446,                                  ! Barometric Pressure {Pa}
  2.7,                                    ! Wind Speed {m/s}
  290,                                    ! Wind Direction {deg}
  0,                                      ! Sky Clearness
  0,                                      ! Rain Indicator
  0,                                      ! Snow Indicator
  21,                                     ! Day of Month
  1,                                      ! Month
  WinterDesignDay,                        ! Day Type
  0,                                      ! Daylight Saving Time Indicator
  Wetbulb,                                ! Humidity Indicating Type
  ,                                       ! Humidity Indicating Day Schedule Name
  DefaultMultipliers,                     ! Dry-Bulb Temperature Range Modifier Type
  ,                                       ! Dry-Bulb Temperature Range Modifier Schedule Name
  ASHRAEClearSky;                         ! Solar Model Indicator

OS:ComponentData,
  {e964b00b-1e12-4152-a178-252f2af81b23}, ! Handle
  Component Data 1,                       ! Name
  {ea235510-add9-4445-b6c7-90f486ad5be1}, ! UUID
  {1643e42c-bed0-4c84-9580-8102625475fc}, ! Version UUID
  1366308444,                             ! Creation Timestamp
  1366308444,                             ! Version Timestamp
  {1984d30d-caef-4ba3-b3d8-967641a25097}; ! Name of Object 1

