
OS:Version,
  {feaffac0-17ee-4340-b66e-414706b87a6d}, ! Handle
  0.9.3;                                  ! Version Identifier

OS:SizingPeriod:DesignDay,
  {6420b807-cda7-4632-a074-b0a3bdccb0d3}, ! Handle
  NOME Ann Clg .4% Condns DP=>MDB,        ! Name
  15.9,                                   ! Maximum Dry-Bulb Temperature {C}
  5.9,                                    ! Daily Dry-Bulb Temperature Range {deltaC}
  13.2,                                   ! Humidity Indicating Conditions at Maximum Dry-Bulb {BasedOnField A3}
  101241,                                 ! Barometric Pressure {Pa}
  4.8,                                    ! Wind Speed {m/s}
  260,                                    ! Wind Direction {deg}
  0,                                      ! Sky Clearness
  0,                                      ! Rain Indicator
  0,                                      ! Snow Indicator
  21,                                     ! Day of Month
  7,                                      ! Month
  SummerDesignDay,                        ! Day Type
  0,                                      ! Daylight Saving Time Indicator
  Dewpoint,                               ! Humidity Indicating Type
  ,                                       ! Humidity Indicating Day Schedule Name
  DefaultMultipliers,                     ! Dry-Bulb Temperature Range Modifier Type
  ,                                       ! Dry-Bulb Temperature Range Modifier Schedule Name
  ASHRAETau,                              ! Solar Model Indicator
  ,                                       ! Beam Solar Day Schedule Name
  ,                                       ! Diffuse Solar Day Schedule Name
  0.408,                                  ! ASHRAE Taub {dimensionless}
  2.08;                                   ! ASHRAE Taud {dimensionless}

OS:ComponentData,
  {39a1371a-378f-4b60-98a8-9d6f14949979}, ! Handle
  Component Data 1,                       ! Name
  {65e6588c-1ff8-4080-8915-7df4483f65c1}, ! UUID
  {6fbccd17-96b6-481a-8076-e547bb4175eb}, ! Version UUID
  1366305446,                             ! Creation Timestamp
  1366305446,                             ! Version Timestamp
  {6420b807-cda7-4632-a074-b0a3bdccb0d3}; ! Name of Object 1

