
OS:Version,
  {98731f78-e562-4e3c-99f9-f98b19269f8d}, ! Handle
  0.9.3;                                  ! Version Identifier

OS:SizingPeriod:DesignDay,
  {7d9e5113-3ac0-4889-9003-d4b45b208777}, ! Handle
  Santa Maria Public Arpt Ann Hum_n 99.6% Condns DP=>MCDB, ! Name
  11.4,                                   ! Maximum Dry-Bulb Temperature {C}
  0,                                      ! Daily Dry-Bulb Temperature Range {deltaC}
  -6.1,                                   ! Humidity Indicating Conditions at Maximum Dry-Bulb {BasedOnField A3}
  100403,                                 ! Barometric Pressure {Pa}
  1.7,                                    ! Wind Speed {m/s}
  120,                                    ! Wind Direction {deg}
  0,                                      ! Sky Clearness
  0,                                      ! Rain Indicator
  0,                                      ! Snow Indicator
  21,                                     ! Day of Month
  12,                                     ! Month
  WinterDesignDay,                        ! Day Type
  0,                                      ! Daylight Saving Time Indicator
  Dewpoint,                               ! Humidity Indicating Type
  ,                                       ! Humidity Indicating Day Schedule Name
  DefaultMultipliers,                     ! Dry-Bulb Temperature Range Modifier Type
  ,                                       ! Dry-Bulb Temperature Range Modifier Schedule Name
  ASHRAEClearSky;                         ! Solar Model Indicator

OS:ComponentData,
  {7c1bc01c-3880-4e7f-915e-349eaf9a4e17}, ! Handle
  Component Data 1,                       ! Name
  {87a2e78d-438a-467c-8394-76748445d503}, ! UUID
  {46645720-6eb3-46a4-b01f-ca5abfbfe00e}, ! Version UUID
  1366306615,                             ! Creation Timestamp
  1366306615,                             ! Version Timestamp
  {7d9e5113-3ac0-4889-9003-d4b45b208777}; ! Name of Object 1

