
OS:Version,
  {eee974e5-db33-49d2-8630-1fc5c001ead1}, ! Handle
  0.9.3;                                  ! Version Identifier

OS:SizingPeriod:DesignDay,
  {adfe953f-ad69-4ed4-97d4-3241461317ba}, ! Handle
  Rock Springs Ann Htg Wind 99.6% Condns WS=>MCDB, ! Name
  -2,                                     ! Maximum Dry-Bulb Temperature {C}
  0,                                      ! Daily Dry-Bulb Temperature Range {deltaC}
  -2,                                     ! Humidity Indicating Conditions at Maximum Dry-Bulb {BasedOnField A3}
  78905,                                  ! Barometric Pressure {Pa}
  16.3,                                   ! Wind Speed {m/s}
  70,                                     ! Wind Direction {deg}
  0,                                      ! Sky Clearness
  0,                                      ! Rain Indicator
  0,                                      ! Snow Indicator
  21,                                     ! Day of Month
  12,                                     ! Month
  WinterDesignDay,                        ! Day Type
  0,                                      ! Daylight Saving Time Indicator
  Wetbulb,                                ! Humidity Indicating Type
  ,                                       ! Humidity Indicating Day Schedule Name
  DefaultMultipliers,                     ! Dry-Bulb Temperature Range Modifier Type
  ,                                       ! Dry-Bulb Temperature Range Modifier Schedule Name
  ASHRAEClearSky;                         ! Solar Model Indicator

OS:ComponentData,
  {96ee28c0-f0f0-4667-a6c3-5e6b64837e45}, ! Handle
  Component Data 1,                       ! Name
  {446c6680-a441-4617-a804-2d5df8162a5f}, ! UUID
  {96f592e0-5c1f-40de-bfbe-451f3cc0b965}, ! Version UUID
  1366311732,                             ! Creation Timestamp
  1366311732,                             ! Version Timestamp
  {adfe953f-ad69-4ed4-97d4-3241461317ba}; ! Name of Object 1

