
OS:Version,
  {18d831c8-b5ea-41ac-89dd-1f57f55bd27c}, ! Handle
  0.9.3;                                  ! Version Identifier

OS:SizingPeriod:DesignDay,
  {c4b6d25d-9cf0-4eb5-9cec-5511821cff0c}, ! Handle
  Ohio State Universi Ann Clg .4% Condns WB=>MDB, ! Name
  30.1,                                   ! Maximum Dry-Bulb Temperature {C}
  10.4,                                   ! Daily Dry-Bulb Temperature Range {deltaC}
  24.7,                                   ! Humidity Indicating Conditions at Maximum Dry-Bulb {BasedOnField A3}
  97971,                                  ! Barometric Pressure {Pa}
  4.5,                                    ! Wind Speed {m/s}
  240,                                    ! Wind Direction {deg}
  0,                                      ! Sky Clearness
  0,                                      ! Rain Indicator
  0,                                      ! Snow Indicator
  21,                                     ! Day of Month
  7,                                      ! Month
  SummerDesignDay,                        ! Day Type
  0,                                      ! Daylight Saving Time Indicator
  Wetbulb,                                ! Humidity Indicating Type
  ,                                       ! Humidity Indicating Day Schedule Name
  DefaultMultipliers,                     ! Dry-Bulb Temperature Range Modifier Type
  ,                                       ! Dry-Bulb Temperature Range Modifier Schedule Name
  ASHRAETau,                              ! Solar Model Indicator
  ,                                       ! Beam Solar Day Schedule Name
  ,                                       ! Diffuse Solar Day Schedule Name
  0.479,                                  ! ASHRAE Taub {dimensionless}
  1.957;                                  ! ASHRAE Taud {dimensionless}

OS:ComponentData,
  {8952458e-29d6-4ad9-8881-667bb1e9400b}, ! Handle
  Component Data 1,                       ! Name
  {496651cc-573d-4fd4-9f80-530cdb4786b2}, ! UUID
  {a01daa73-4e3c-4d4f-9a3e-dbd0192aafd3}, ! Version UUID
  1366309841,                             ! Creation Timestamp
  1366309841,                             ! Version Timestamp
  {c4b6d25d-9cf0-4eb5-9cec-5511821cff0c}; ! Name of Object 1

