
OS:Version,
  {96fe5303-7361-4269-a8a6-4452b5b1dfb5}, ! Handle
  0.9.3;                                  ! Version Identifier

OS:SizingPeriod:DesignDay,
  {9016c58e-45bc-4876-8159-df837dd633cb}, ! Handle
  Redmond Roberts Field Ann Htg 99.6% Condns DB, ! Name
  -14.8,                                  ! Maximum Dry-Bulb Temperature {C}
  0,                                      ! Daily Dry-Bulb Temperature Range {deltaC}
  -14.8,                                  ! Humidity Indicating Conditions at Maximum Dry-Bulb {BasedOnField A3}
  90607,                                  ! Barometric Pressure {Pa}
  1.7,                                    ! Wind Speed {m/s}
  320,                                    ! Wind Direction {deg}
  0,                                      ! Sky Clearness
  0,                                      ! Rain Indicator
  0,                                      ! Snow Indicator
  21,                                     ! Day of Month
  12,                                     ! Month
  WinterDesignDay,                        ! Day Type
  0,                                      ! Daylight Saving Time Indicator
  Wetbulb,                                ! Humidity Indicating Type
  ,                                       ! Humidity Indicating Day Schedule Name
  DefaultMultipliers,                     ! Dry-Bulb Temperature Range Modifier Type
  ,                                       ! Dry-Bulb Temperature Range Modifier Schedule Name
  ASHRAEClearSky;                         ! Solar Model Indicator

OS:ComponentData,
  {7d018ffa-1f05-4345-bb91-0b289c1c4f73}, ! Handle
  Component Data 1,                       ! Name
  {815325f3-1c15-4873-9920-d768c0e52193}, ! UUID
  {e8341e21-7965-439f-95a5-5dee47b4846d}, ! Version UUID
  1366310096,                             ! Creation Timestamp
  1366310096,                             ! Version Timestamp
  {9016c58e-45bc-4876-8159-df837dd633cb}; ! Name of Object 1

