
OS:Version,
  {14e15bbb-ef76-40d0-a0ea-2a5ab6f6630f}, ! Handle
  0.9.3;                                  ! Version Identifier

OS:SizingPeriod:DesignDay,
  {ce402426-7503-4718-ace5-42edb3a6daf6}, ! Handle
  South Bend Michiana Rgnl Ap Ann Clg 1% Condns WB=>MDB, ! Name
  28.9,                                   ! Maximum Dry-Bulb Temperature {C}
  10.4,                                   ! Daily Dry-Bulb Temperature Range {deltaC}
  24.2,                                   ! Humidity Indicating Conditions at Maximum Dry-Bulb {BasedOnField A3}
  98522,                                  ! Barometric Pressure {Pa}
  5.2,                                    ! Wind Speed {m/s}
  220,                                    ! Wind Direction {deg}
  0,                                      ! Sky Clearness
  0,                                      ! Rain Indicator
  0,                                      ! Snow Indicator
  21,                                     ! Day of Month
  7,                                      ! Month
  SummerDesignDay,                        ! Day Type
  0,                                      ! Daylight Saving Time Indicator
  Wetbulb,                                ! Humidity Indicating Type
  ,                                       ! Humidity Indicating Day Schedule Name
  DefaultMultipliers,                     ! Dry-Bulb Temperature Range Modifier Type
  ,                                       ! Dry-Bulb Temperature Range Modifier Schedule Name
  ASHRAETau,                              ! Solar Model Indicator
  ,                                       ! Beam Solar Day Schedule Name
  ,                                       ! Diffuse Solar Day Schedule Name
  0.433,                                  ! ASHRAE Taub {dimensionless}
  2.144;                                  ! ASHRAE Taud {dimensionless}

OS:ComponentData,
  {68d2cbc7-be04-49c9-a6a5-894b9bf60ddc}, ! Handle
  Component Data 1,                       ! Name
  {b0624a57-8f26-4a77-b0a0-69d9b6df8406}, ! UUID
  {f504e1d1-5360-4831-8cc1-3b979cc2e22d}, ! Version UUID
  1366307484,                             ! Creation Timestamp
  1366307484,                             ! Version Timestamp
  {ce402426-7503-4718-ace5-42edb3a6daf6}; ! Name of Object 1

