
OS:Version,
  {74f46fe8-d65b-4c63-9118-d69efe8ded67}, ! Handle
  0.9.3;                                  ! Version Identifier

OS:SizingPeriod:DesignDay,
  {dc5309b6-bf16-404b-85c2-b5429ff3fa43}, ! Handle
  Salt Lake City IntL Arpt  Isi Ann Hum_n 99.6% Condns DP=>MCDB, ! Name
  -10.7,                                  ! Maximum Dry-Bulb Temperature {C}
  0,                                      ! Daily Dry-Bulb Temperature Range {deltaC}
  -16.5,                                  ! Humidity Indicating Conditions at Maximum Dry-Bulb {BasedOnField A3}
  86779,                                  ! Barometric Pressure {Pa}
  2.8,                                    ! Wind Speed {m/s}
  150,                                    ! Wind Direction {deg}
  0,                                      ! Sky Clearness
  0,                                      ! Rain Indicator
  0,                                      ! Snow Indicator
  21,                                     ! Day of Month
  1,                                      ! Month
  WinterDesignDay,                        ! Day Type
  0,                                      ! Daylight Saving Time Indicator
  Dewpoint,                               ! Humidity Indicating Type
  ,                                       ! Humidity Indicating Day Schedule Name
  DefaultMultipliers,                     ! Dry-Bulb Temperature Range Modifier Type
  ,                                       ! Dry-Bulb Temperature Range Modifier Schedule Name
  ASHRAEClearSky;                         ! Solar Model Indicator

OS:ComponentData,
  {6c663567-468c-4692-9771-69e84258ada2}, ! Handle
  Component Data 1,                       ! Name
  {c217ebed-c2db-467d-8e34-71f114b42398}, ! UUID
  {5a3ae2db-da56-4975-bae7-5682c11c2e4b}, ! Version UUID
  1366310998,                             ! Creation Timestamp
  1366310998,                             ! Version Timestamp
  {dc5309b6-bf16-404b-85c2-b5429ff3fa43}; ! Name of Object 1

