
OS:Version,
  {812dcfee-89d5-40fc-977c-36862460bf1f}, ! Handle
  0.9.3;                                  ! Version Identifier

OS:SizingPeriod:DesignDay,
  {75c82b4e-a37f-49ab-8fa6-ceae146c7ecc}, ! Handle
  Philadelphia/Willow Gr Ann Clg 1% Condns Enth=>MDB, ! Name
  30,                                     ! Maximum Dry-Bulb Temperature {C}
  9.4,                                    ! Daily Dry-Bulb Temperature Range {deltaC}
  75800,                                  ! Humidity Indicating Conditions at Maximum Dry-Bulb {BasedOnField A3}
  100011,                                 ! Barometric Pressure {Pa}
  5,                                      ! Wind Speed {m/s}
  240,                                    ! Wind Direction {deg}
  0,                                      ! Sky Clearness
  0,                                      ! Rain Indicator
  0,                                      ! Snow Indicator
  21,                                     ! Day of Month
  7,                                      ! Month
  SummerDesignDay,                        ! Day Type
  0,                                      ! Daylight Saving Time Indicator
  Enthalpy,                               ! Humidity Indicating Type
  ,                                       ! Humidity Indicating Day Schedule Name
  DefaultMultipliers,                     ! Dry-Bulb Temperature Range Modifier Type
  ,                                       ! Dry-Bulb Temperature Range Modifier Schedule Name
  ASHRAETau,                              ! Solar Model Indicator
  ,                                       ! Beam Solar Day Schedule Name
  ,                                       ! Diffuse Solar Day Schedule Name
  0.55,                                   ! ASHRAE Taub {dimensionless}
  1.776;                                  ! ASHRAE Taud {dimensionless}

OS:ComponentData,
  {69f6808d-9fd7-449c-9cb1-15e48f25c67c}, ! Handle
  Component Data 1,                       ! Name
  {341d907f-1f4b-4785-ae98-e5c3a4b49f77}, ! UUID
  {469599f1-088c-43cc-a291-19dfc183090d}, ! Version UUID
  1366310220,                             ! Creation Timestamp
  1366310220,                             ! Version Timestamp
  {75c82b4e-a37f-49ab-8fa6-ceae146c7ecc}; ! Name of Object 1

