
OS:Version,
  {40377e98-514d-4920-a1fa-ae7955846d7a}, ! Handle
  0.9.3;                                  ! Version Identifier

OS:SizingPeriod:DesignDay,
  {a169f2a5-085a-4437-944c-554ecb83f0ee}, ! Handle
  Philadelphia/Willow Gr Ann Clg 1% Condns Enth=>MDB, ! Name
  30,                                     ! Maximum Dry-Bulb Temperature {C}
  9.4,                                    ! Daily Dry-Bulb Temperature Range {deltaC}
  75800,                                  ! Humidity Indicating Conditions at Maximum Dry-Bulb {BasedOnField A3}
  100011,                                 ! Barometric Pressure {Pa}
  5,                                      ! Wind Speed {m/s}
  240,                                    ! Wind Direction {deg}
  0,                                      ! Sky Clearness
  0,                                      ! Rain Indicator
  0,                                      ! Snow Indicator
  21,                                     ! Day of Month
  7,                                      ! Month
  SummerDesignDay,                        ! Day Type
  0,                                      ! Daylight Saving Time Indicator
  Enthalpy,                               ! Humidity Indicating Type
  ,                                       ! Humidity Indicating Day Schedule Name
  DefaultMultipliers,                     ! Dry-Bulb Temperature Range Modifier Type
  ,                                       ! Dry-Bulb Temperature Range Modifier Schedule Name
  ASHRAETau,                              ! Solar Model Indicator
  ,                                       ! Beam Solar Day Schedule Name
  ,                                       ! Diffuse Solar Day Schedule Name
  0.55,                                   ! ASHRAE Taub {dimensionless}
  1.776;                                  ! ASHRAE Taud {dimensionless}

