
OS:Version,
  {9fe44775-6fd8-47da-ae90-7ecffa056e1c}, ! Handle
  0.9.3;                                  ! Version Identifier

OS:SizingPeriod:DesignDay,
  {9156a3a1-4113-4377-9320-e299380cadad}, ! Handle
  Page Muni  Amos Ann Clg .4% Condns Enth=>MDB, ! Name
  29.8,                                   ! Maximum Dry-Bulb Temperature {C}
  13.2,                                   ! Daily Dry-Bulb Temperature Range {deltaC}
  60400,                                  ! Humidity Indicating Conditions at Maximum Dry-Bulb {BasedOnField A3}
  86610,                                  ! Barometric Pressure {Pa}
  3.2,                                    ! Wind Speed {m/s}
  350,                                    ! Wind Direction {deg}
  0,                                      ! Sky Clearness
  0,                                      ! Rain Indicator
  0,                                      ! Snow Indicator
  21,                                     ! Day of Month
  7,                                      ! Month
  SummerDesignDay,                        ! Day Type
  0,                                      ! Daylight Saving Time Indicator
  Enthalpy,                               ! Humidity Indicating Type
  ,                                       ! Humidity Indicating Day Schedule Name
  DefaultMultipliers,                     ! Dry-Bulb Temperature Range Modifier Type
  ,                                       ! Dry-Bulb Temperature Range Modifier Schedule Name
  ASHRAETau,                              ! Solar Model Indicator
  ,                                       ! Beam Solar Day Schedule Name
  ,                                       ! Diffuse Solar Day Schedule Name
  0.414,                                  ! ASHRAE Taub {dimensionless}
  2.049;                                  ! ASHRAE Taud {dimensionless}

