
OS:Version,
  {741bf180-f9d7-4dcd-84ae-6c0d8c1a8f46}, ! Handle
  0.9.3;                                  ! Version Identifier

OS:SizingPeriod:DesignDay,
  {51647fb7-fae8-4490-820a-a58aadc17358}, ! Handle
  New Orleans/Lakefront Ann Htg 99% Condns DB, ! Name
  1.9,                                    ! Maximum Dry-Bulb Temperature {C}
  0,                                      ! Daily Dry-Bulb Temperature Range {deltaC}
  1.9,                                    ! Humidity Indicating Conditions at Maximum Dry-Bulb {BasedOnField A3}
  101289,                                 ! Barometric Pressure {Pa}
  4,                                      ! Wind Speed {m/s}
  10,                                     ! Wind Direction {deg}
  0,                                      ! Sky Clearness
  0,                                      ! Rain Indicator
  0,                                      ! Snow Indicator
  21,                                     ! Day of Month
  1,                                      ! Month
  WinterDesignDay,                        ! Day Type
  0,                                      ! Daylight Saving Time Indicator
  Wetbulb,                                ! Humidity Indicating Type
  ,                                       ! Humidity Indicating Day Schedule Name
  DefaultMultipliers,                     ! Dry-Bulb Temperature Range Modifier Type
  ,                                       ! Dry-Bulb Temperature Range Modifier Schedule Name
  ASHRAEClearSky;                         ! Solar Model Indicator

OS:ComponentData,
  {2f94067d-2d13-45e4-9a0c-4128da4aa05b}, ! Handle
  Component Data 1,                       ! Name
  {314ca389-050b-44ab-a567-1fdff36af420}, ! UUID
  {684782de-6dd0-4cba-9bb8-6da7a0e618b5}, ! Version UUID
  1366307750,                             ! Creation Timestamp
  1366307750,                             ! Version Timestamp
  {51647fb7-fae8-4490-820a-a58aadc17358}; ! Name of Object 1

