
OS:Version,
  {8bd60ae5-2445-4e13-a422-675c9089e8bd}, ! Handle
  0.9.3;                                  ! Version Identifier

OS:SizingPeriod:DesignDay,
  {bbef3965-baf3-4845-bd83-8c00086a7c8e}, ! Handle
  Tulsa International Airport Ann Clg 1% Condns Enth=>MDB, ! Name
  33.3,                                   ! Maximum Dry-Bulb Temperature {C}
  10.5,                                   ! Daily Dry-Bulb Temperature Range {deltaC}
  79800,                                  ! Humidity Indicating Conditions at Maximum Dry-Bulb {BasedOnField A3}
  98969,                                  ! Barometric Pressure {Pa}
  4.9,                                    ! Wind Speed {m/s}
  190,                                    ! Wind Direction {deg}
  0,                                      ! Sky Clearness
  0,                                      ! Rain Indicator
  0,                                      ! Snow Indicator
  21,                                     ! Day of Month
  7,                                      ! Month
  SummerDesignDay,                        ! Day Type
  0,                                      ! Daylight Saving Time Indicator
  Enthalpy,                               ! Humidity Indicating Type
  ,                                       ! Humidity Indicating Day Schedule Name
  DefaultMultipliers,                     ! Dry-Bulb Temperature Range Modifier Type
  ,                                       ! Dry-Bulb Temperature Range Modifier Schedule Name
  ASHRAETau,                              ! Solar Model Indicator
  ,                                       ! Beam Solar Day Schedule Name
  ,                                       ! Diffuse Solar Day Schedule Name
  0.453,                                  ! ASHRAE Taub {dimensionless}
  2.105;                                  ! ASHRAE Taud {dimensionless}

OS:ComponentData,
  {3889ae11-b468-4b7f-ab1d-26d68d54cf74}, ! Handle
  Component Data 1,                       ! Name
  {e54551e9-5f1d-4354-801d-45575f722420}, ! UUID
  {75c5b70b-26c6-43e4-ab89-5708ca9c0321}, ! Version UUID
  1366309959,                             ! Creation Timestamp
  1366309959,                             ! Version Timestamp
  {bbef3965-baf3-4845-bd83-8c00086a7c8e}; ! Name of Object 1

