
OS:Version,
  {f2e6be29-b4a4-4f50-9cc0-4f173952e879}, ! Handle
  0.9.3;                                  ! Version Identifier

OS:SizingPeriod:DesignDay,
  {488ef52c-dc59-471b-88a6-6fb33d3ef980}, ! Handle
  Skagway Airport Ann Clg 1% Condns Enth=>MDB, ! Name
  18.8,                                   ! Maximum Dry-Bulb Temperature {C}
  6,                                      ! Daily Dry-Bulb Temperature Range {deltaC}
  40400,                                  ! Humidity Indicating Conditions at Maximum Dry-Bulb {BasedOnField A3}
  101217,                                 ! Barometric Pressure {Pa}
  5,                                      ! Wind Speed {m/s}
  210,                                    ! Wind Direction {deg}
  0,                                      ! Sky Clearness
  0,                                      ! Rain Indicator
  0,                                      ! Snow Indicator
  21,                                     ! Day of Month
  7,                                      ! Month
  SummerDesignDay,                        ! Day Type
  0,                                      ! Daylight Saving Time Indicator
  Enthalpy,                               ! Humidity Indicating Type
  ,                                       ! Humidity Indicating Day Schedule Name
  DefaultMultipliers,                     ! Dry-Bulb Temperature Range Modifier Type
  ,                                       ! Dry-Bulb Temperature Range Modifier Schedule Name
  ASHRAETau,                              ! Solar Model Indicator
  ,                                       ! Beam Solar Day Schedule Name
  ,                                       ! Diffuse Solar Day Schedule Name
  0.441,                                  ! ASHRAE Taub {dimensionless}
  1.907;                                  ! ASHRAE Taud {dimensionless}

OS:ComponentData,
  {812e2197-f0f7-49bc-b76e-8ac43dca0d38}, ! Handle
  Component Data 1,                       ! Name
  {fcdf7e3c-580e-402b-af25-f37b4878192e}, ! UUID
  {8ea15112-cfb8-4ef5-beb6-cf50235d0901}, ! Version UUID
  1366305561,                             ! Creation Timestamp
  1366305561,                             ! Version Timestamp
  {488ef52c-dc59-471b-88a6-6fb33d3ef980}; ! Name of Object 1

