
OS:Version,
  {4eb7f946-a414-44b9-a414-a1e0406a005b}, ! Handle
  0.9.3;                                  ! Version Identifier

OS:SizingPeriod:DesignDay,
  {131e3000-8251-4cd2-a36c-d36a78e0daa2}, ! Handle
  MERIDIAN Ann Htg Wind 99% Condns WS=>MCDB, ! Name
  11.6,                                   ! Maximum Dry-Bulb Temperature {C}
  0,                                      ! Daily Dry-Bulb Temperature Range {deltaC}
  11.6,                                   ! Humidity Indicating Conditions at Maximum Dry-Bulb {BasedOnField A3}
  100201,                                 ! Barometric Pressure {Pa}
  8.5,                                    ! Wind Speed {m/s}
  0,                                      ! Wind Direction {deg}
  0,                                      ! Sky Clearness
  0,                                      ! Rain Indicator
  0,                                      ! Snow Indicator
  21,                                     ! Day of Month
  1,                                      ! Month
  WinterDesignDay,                        ! Day Type
  0,                                      ! Daylight Saving Time Indicator
  Wetbulb,                                ! Humidity Indicating Type
  ,                                       ! Humidity Indicating Day Schedule Name
  DefaultMultipliers,                     ! Dry-Bulb Temperature Range Modifier Type
  ,                                       ! Dry-Bulb Temperature Range Modifier Schedule Name
  ASHRAEClearSky;                         ! Solar Model Indicator

OS:ComponentData,
  {0caf6d10-f6c6-46d3-87ef-a52404b15687}, ! Handle
  Component Data 1,                       ! Name
  {477dfb7a-211b-4855-9dc9-649b0917ea78}, ! UUID
  {8d387d83-147b-41c3-a2c1-2fa76a31aef8}, ! Version UUID
  1366308672,                             ! Creation Timestamp
  1366308672,                             ! Version Timestamp
  {131e3000-8251-4cd2-a36c-d36a78e0daa2}; ! Name of Object 1

