
OS:Version,
  {6eae434f-43e1-44cd-a2a0-9ec3999cbb81}, ! Handle
  0.9.3;                                  ! Version Identifier

OS:SizingPeriod:DesignDay,
  {0f82506f-7a11-4c9b-bb68-e07114ecefd0}, ! Handle
  QUILLAYUTE Ann Clg .4% Condns Enth=>MDB, ! Name
  24.7,                                   ! Maximum Dry-Bulb Temperature {C}
  9.8,                                    ! Daily Dry-Bulb Temperature Range {deltaC}
  50900,                                  ! Humidity Indicating Conditions at Maximum Dry-Bulb {BasedOnField A3}
  100666,                                 ! Barometric Pressure {Pa}
  3.7,                                    ! Wind Speed {m/s}
  240,                                    ! Wind Direction {deg}
  0,                                      ! Sky Clearness
  0,                                      ! Rain Indicator
  0,                                      ! Snow Indicator
  21,                                     ! Day of Month
  8,                                      ! Month
  SummerDesignDay,                        ! Day Type
  0,                                      ! Daylight Saving Time Indicator
  Enthalpy,                               ! Humidity Indicating Type
  ,                                       ! Humidity Indicating Day Schedule Name
  DefaultMultipliers,                     ! Dry-Bulb Temperature Range Modifier Type
  ,                                       ! Dry-Bulb Temperature Range Modifier Schedule Name
  ASHRAETau,                              ! Solar Model Indicator
  ,                                       ! Beam Solar Day Schedule Name
  ,                                       ! Diffuse Solar Day Schedule Name
  0.351,                                  ! ASHRAE Taub {dimensionless}
  2.578;                                  ! ASHRAE Taud {dimensionless}

OS:ComponentData,
  {c55d3d4d-6af0-4cbd-a420-4f8cdcb70f93}, ! Handle
  Component Data 1,                       ! Name
  {ea3c674e-e3e1-4bb2-bcc3-0a712b63e2a5}, ! UUID
  {b4c6ae1c-ebc6-41c5-b8d5-7178e84f0001}, ! Version UUID
  1366311337,                             ! Creation Timestamp
  1366311337,                             ! Version Timestamp
  {0f82506f-7a11-4c9b-bb68-e07114ecefd0}; ! Name of Object 1

