
OS:Version,
  {fbe92f0d-d42a-4dc4-927a-44a2897fd403}, ! Handle
  0.9.3;                                  ! Version Identifier

OS:SizingPeriod:DesignDay,
  {847b973d-030f-4d06-8620-b612394a1a26}, ! Handle
  Seattle Boeing Field  Isis Ann Clg .4% Condns WB=>MDB, ! Name
  28.6,                                   ! Maximum Dry-Bulb Temperature {C}
  10.2,                                   ! Daily Dry-Bulb Temperature Range {deltaC}
  19.4,                                   ! Humidity Indicating Conditions at Maximum Dry-Bulb {BasedOnField A3}
  101085,                                 ! Barometric Pressure {Pa}
  4.5,                                    ! Wind Speed {m/s}
  320,                                    ! Wind Direction {deg}
  0,                                      ! Sky Clearness
  0,                                      ! Rain Indicator
  0,                                      ! Snow Indicator
  21,                                     ! Day of Month
  8,                                      ! Month
  SummerDesignDay,                        ! Day Type
  0,                                      ! Daylight Saving Time Indicator
  Wetbulb,                                ! Humidity Indicating Type
  ,                                       ! Humidity Indicating Day Schedule Name
  DefaultMultipliers,                     ! Dry-Bulb Temperature Range Modifier Type
  ,                                       ! Dry-Bulb Temperature Range Modifier Schedule Name
  ASHRAETau,                              ! Solar Model Indicator
  ,                                       ! Beam Solar Day Schedule Name
  ,                                       ! Diffuse Solar Day Schedule Name
  0.359,                                  ! ASHRAE Taub {dimensionless}
  2.539;                                  ! ASHRAE Taud {dimensionless}

OS:ComponentData,
  {6c9c4e74-473e-4fbf-b454-d593e2b2e963}, ! Handle
  Component Data 1,                       ! Name
  {8d6ce0ca-570e-4fe4-a819-403ed4ae4ddd}, ! UUID
  {4809c04a-af32-4e49-809a-82b90606e712}, ! Version UUID
  1366311348,                             ! Creation Timestamp
  1366311348,                             ! Version Timestamp
  {847b973d-030f-4d06-8620-b612394a1a26}; ! Name of Object 1

