
OS:Version,
  {04dc9868-e404-442b-86d1-66459e98d464}, ! Handle
  0.9.3;                                  ! Version Identifier

OS:SizingPeriod:DesignDay,
  {19948bbf-d3bf-474a-ab50-1ff050023870}, ! Handle
  Olympia Ann Clg 1% Condns DB=>MWB,      ! Name
  28.5,                                   ! Maximum Dry-Bulb Temperature {C}
  14.6,                                   ! Daily Dry-Bulb Temperature Range {deltaC}
  18.2,                                   ! Humidity Indicating Conditions at Maximum Dry-Bulb {BasedOnField A3}
  100594,                                 ! Barometric Pressure {Pa}
  3.4,                                    ! Wind Speed {m/s}
  20,                                     ! Wind Direction {deg}
  0,                                      ! Sky Clearness
  0,                                      ! Rain Indicator
  0,                                      ! Snow Indicator
  21,                                     ! Day of Month
  8,                                      ! Month
  SummerDesignDay,                        ! Day Type
  0,                                      ! Daylight Saving Time Indicator
  Wetbulb,                                ! Humidity Indicating Type
  ,                                       ! Humidity Indicating Day Schedule Name
  DefaultMultipliers,                     ! Dry-Bulb Temperature Range Modifier Type
  ,                                       ! Dry-Bulb Temperature Range Modifier Schedule Name
  ASHRAETau,                              ! Solar Model Indicator
  ,                                       ! Beam Solar Day Schedule Name
  ,                                       ! Diffuse Solar Day Schedule Name
  0.359,                                  ! ASHRAE Taub {dimensionless}
  2.536;                                  ! ASHRAE Taud {dimensionless}

