
OS:Version,
  {f1a92a7f-d16f-4da2-931d-5d9983ba9eef}, ! Handle
  0.9.3;                                  ! Version Identifier

OS:SizingPeriod:DesignDay,
  {180722c4-cc78-4e60-9a3a-e5fda594eff2}, ! Handle
  Richmond International Ap Ann Clg .4% Condns DB=>MWB, ! Name
  34.9,                                   ! Maximum Dry-Bulb Temperature {C}
  10.4,                                   ! Daily Dry-Bulb Temperature Range {deltaC}
  24.5,                                   ! Humidity Indicating Conditions at Maximum Dry-Bulb {BasedOnField A3}
  100726,                                 ! Barometric Pressure {Pa}
  4.5,                                    ! Wind Speed {m/s}
  230,                                    ! Wind Direction {deg}
  0,                                      ! Sky Clearness
  0,                                      ! Rain Indicator
  0,                                      ! Snow Indicator
  21,                                     ! Day of Month
  7,                                      ! Month
  SummerDesignDay,                        ! Day Type
  0,                                      ! Daylight Saving Time Indicator
  Wetbulb,                                ! Humidity Indicating Type
  ,                                       ! Humidity Indicating Day Schedule Name
  DefaultMultipliers,                     ! Dry-Bulb Temperature Range Modifier Type
  ,                                       ! Dry-Bulb Temperature Range Modifier Schedule Name
  ASHRAETau,                              ! Solar Model Indicator
  ,                                       ! Beam Solar Day Schedule Name
  ,                                       ! Diffuse Solar Day Schedule Name
  0.567,                                  ! ASHRAE Taub {dimensionless}
  1.742;                                  ! ASHRAE Taud {dimensionless}

OS:ComponentData,
  {7cb68f07-be5c-487e-a068-8fcf00a58784}, ! Handle
  Component Data 1,                       ! Name
  {1678216a-eced-407f-b4f7-ac77bbc8932e}, ! UUID
  {da203ec4-12b2-45eb-86fa-c2c81de9bf62}, ! Version UUID
  1366311174,                             ! Creation Timestamp
  1366311174,                             ! Version Timestamp
  {180722c4-cc78-4e60-9a3a-e5fda594eff2}; ! Name of Object 1

