
OS:Version,
  {914d6fc2-e7cd-494d-ac2a-a89bab863c09}, ! Handle
  0.9.3;                                  ! Version Identifier

OS:SizingPeriod:DesignDay,
  {a50af82f-c0c3-4054-ab65-da2b58496ee2}, ! Handle
  Spencer Ann Clg 1% Condns DP=>MDB,      ! Name
  27.6,                                   ! Maximum Dry-Bulb Temperature {C}
  11.3,                                   ! Daily Dry-Bulb Temperature Range {deltaC}
  22.7,                                   ! Humidity Indicating Conditions at Maximum Dry-Bulb {BasedOnField A3}
  96519,                                  ! Barometric Pressure {Pa}
  6.1,                                    ! Wind Speed {m/s}
  180,                                    ! Wind Direction {deg}
  0,                                      ! Sky Clearness
  0,                                      ! Rain Indicator
  0,                                      ! Snow Indicator
  21,                                     ! Day of Month
  7,                                      ! Month
  SummerDesignDay,                        ! Day Type
  0,                                      ! Daylight Saving Time Indicator
  Dewpoint,                               ! Humidity Indicating Type
  ,                                       ! Humidity Indicating Day Schedule Name
  DefaultMultipliers,                     ! Dry-Bulb Temperature Range Modifier Type
  ,                                       ! Dry-Bulb Temperature Range Modifier Schedule Name
  ASHRAETau,                              ! Solar Model Indicator
  ,                                       ! Beam Solar Day Schedule Name
  ,                                       ! Diffuse Solar Day Schedule Name
  0.401,                                  ! ASHRAE Taub {dimensionless}
  2.247;                                  ! ASHRAE Taud {dimensionless}

OS:ComponentData,
  {3bc13a76-53be-4bea-a3af-78f9a1dc37df}, ! Handle
  Component Data 1,                       ! Name
  {54582a4d-83dd-49fd-af48-857fd8797611}, ! UUID
  {2290b236-5528-4806-b2c6-80ec46fb3a04}, ! Version UUID
  1366307243,                             ! Creation Timestamp
  1366307243,                             ! Version Timestamp
  {a50af82f-c0c3-4054-ab65-da2b58496ee2}; ! Name of Object 1

