
OS:Version,
  {0b65444f-ae92-4e8f-a379-9709d9c19015}, ! Handle
  0.9.3;                                  ! Version Identifier

OS:SizingPeriod:DesignDay,
  {fe712de5-68c2-42ff-a8f4-cd82f1c233a7}, ! Handle
  Wilmington Ann Clg .4% Condns DB=>MWB,  ! Name
  33.3,                                   ! Maximum Dry-Bulb Temperature {C}
  9.5,                                    ! Daily Dry-Bulb Temperature Range {deltaC}
  23.9,                                   ! Humidity Indicating Conditions at Maximum Dry-Bulb {BasedOnField A3}
  101037,                                 ! Barometric Pressure {Pa}
  4.6,                                    ! Wind Speed {m/s}
  240,                                    ! Wind Direction {deg}
  0,                                      ! Sky Clearness
  0,                                      ! Rain Indicator
  0,                                      ! Snow Indicator
  21,                                     ! Day of Month
  7,                                      ! Month
  SummerDesignDay,                        ! Day Type
  0,                                      ! Daylight Saving Time Indicator
  Wetbulb,                                ! Humidity Indicating Type
  ,                                       ! Humidity Indicating Day Schedule Name
  DefaultMultipliers,                     ! Dry-Bulb Temperature Range Modifier Type
  ,                                       ! Dry-Bulb Temperature Range Modifier Schedule Name
  ASHRAETau,                              ! Solar Model Indicator
  ,                                       ! Beam Solar Day Schedule Name
  ,                                       ! Diffuse Solar Day Schedule Name
  0.557,                                  ! ASHRAE Taub {dimensionless}
  1.755;                                  ! ASHRAE Taud {dimensionless}

OS:ComponentData,
  {3a8380d9-d489-475b-98c4-7e0340454960}, ! Handle
  Component Data 1,                       ! Name
  {6f4f03f1-e19b-45bf-b766-c47cdc07ba81}, ! UUID
  {d38b4087-a9d6-4d0a-939d-4f3d0f0bba9e}, ! Version UUID
  1366306772,                             ! Creation Timestamp
  1366306772,                             ! Version Timestamp
  {fe712de5-68c2-42ff-a8f4-cd82f1c233a7}; ! Name of Object 1

