
OS:Version,
  {07f65c61-8007-4505-9bf1-f363f80bbdb6}, ! Handle
  0.9.3;                                  ! Version Identifier

OS:SizingPeriod:DesignDay,
  {c73d3ef0-54b5-4ef1-b47a-8f70f7ef3bfc}, ! Handle
  SHERIDAN Ann Htg 99.6% Condns DB,       ! Name
  -24.8,                                  ! Maximum Dry-Bulb Temperature {C}
  0,                                      ! Daily Dry-Bulb Temperature Range {deltaC}
  -24.8,                                  ! Humidity Indicating Conditions at Maximum Dry-Bulb {BasedOnField A3}
  87619,                                  ! Barometric Pressure {Pa}
  2,                                      ! Wind Speed {m/s}
  280,                                    ! Wind Direction {deg}
  0,                                      ! Sky Clearness
  0,                                      ! Rain Indicator
  0,                                      ! Snow Indicator
  21,                                     ! Day of Month
  12,                                     ! Month
  WinterDesignDay,                        ! Day Type
  0,                                      ! Daylight Saving Time Indicator
  Wetbulb,                                ! Humidity Indicating Type
  ,                                       ! Humidity Indicating Day Schedule Name
  DefaultMultipliers,                     ! Dry-Bulb Temperature Range Modifier Type
  ,                                       ! Dry-Bulb Temperature Range Modifier Schedule Name
  ASHRAEClearSky;                         ! Solar Model Indicator

