
OS:Version,
  {484bf413-c28c-4c1a-a17d-3e72c621d72d}, ! Handle
  0.9.3;                                  ! Version Identifier

OS:SizingPeriod:DesignDay,
  {eaa1c21b-b6c0-416d-9e76-1471178e74f5}, ! Handle
  Winnemucca Ann Htg Wind 99% Condns WS=>MCDB, ! Name
  5.6,                                    ! Maximum Dry-Bulb Temperature {C}
  0,                                      ! Daily Dry-Bulb Temperature Range {deltaC}
  5.6,                                    ! Humidity Indicating Conditions at Maximum Dry-Bulb {BasedOnField A3}
  86493,                                  ! Barometric Pressure {Pa}
  10.5,                                   ! Wind Speed {m/s}
  160,                                    ! Wind Direction {deg}
  0,                                      ! Sky Clearness
  0,                                      ! Rain Indicator
  0,                                      ! Snow Indicator
  21,                                     ! Day of Month
  12,                                     ! Month
  WinterDesignDay,                        ! Day Type
  0,                                      ! Daylight Saving Time Indicator
  Wetbulb,                                ! Humidity Indicating Type
  ,                                       ! Humidity Indicating Day Schedule Name
  DefaultMultipliers,                     ! Dry-Bulb Temperature Range Modifier Type
  ,                                       ! Dry-Bulb Temperature Range Modifier Schedule Name
  ASHRAEClearSky;                         ! Solar Model Indicator

OS:ComponentData,
  {749cda3e-40e5-45f7-9c54-ab712b73ef5a}, ! Handle
  Component Data 1,                       ! Name
  {1dcb7a76-af2e-4df2-bb6d-79b08b3b68d3}, ! UUID
  {ae1379d8-77c1-479d-bf64-a49c4c13a50d}, ! Version UUID
  1366309563,                             ! Creation Timestamp
  1366309563,                             ! Version Timestamp
  {eaa1c21b-b6c0-416d-9e76-1471178e74f5}; ! Name of Object 1

