
OS:Version,
  {eaa51338-5f0e-433a-9634-c12d9b421a39}, ! Handle
  0.9.3;                                  ! Version Identifier

OS:SizingPeriod:DesignDay,
  {237be1a9-8cd3-4005-a34c-47d6ebc8ac3b}, ! Handle
  Roanoke Ann Clg 2% Condns WB=>MDB,      ! Name
  28.6,                                   ! Maximum Dry-Bulb Temperature {C}
  10.6,                                   ! Daily Dry-Bulb Temperature Range {deltaC}
  23,                                     ! Humidity Indicating Conditions at Maximum Dry-Bulb {BasedOnField A3}
  97098,                                  ! Barometric Pressure {Pa}
  4,                                      ! Wind Speed {m/s}
  280,                                    ! Wind Direction {deg}
  0,                                      ! Sky Clearness
  0,                                      ! Rain Indicator
  0,                                      ! Snow Indicator
  21,                                     ! Day of Month
  7,                                      ! Month
  SummerDesignDay,                        ! Day Type
  0,                                      ! Daylight Saving Time Indicator
  Wetbulb,                                ! Humidity Indicating Type
  ,                                       ! Humidity Indicating Day Schedule Name
  DefaultMultipliers,                     ! Dry-Bulb Temperature Range Modifier Type
  ,                                       ! Dry-Bulb Temperature Range Modifier Schedule Name
  ASHRAETau,                              ! Solar Model Indicator
  ,                                       ! Beam Solar Day Schedule Name
  ,                                       ! Diffuse Solar Day Schedule Name
  0.529,                                  ! ASHRAE Taub {dimensionless}
  1.818;                                  ! ASHRAE Taud {dimensionless}

OS:ComponentData,
  {1b302680-0443-4799-9e76-be47f98cff95}, ! Handle
  Component Data 1,                       ! Name
  {19450aa9-7670-44a5-be8d-121daced12d7}, ! UUID
  {2c39cdff-3bae-404e-8267-2691b0eb5615}, ! Version UUID
  1366311186,                             ! Creation Timestamp
  1366311186,                             ! Version Timestamp
  {237be1a9-8cd3-4005-a34c-47d6ebc8ac3b}; ! Name of Object 1

