
OS:Version,
  {dea02111-30e0-487e-bf04-755aeb36fcb4}, ! Handle
  0.9.3;                                  ! Version Identifier

OS:SizingPeriod:DesignDay,
  {7702163a-3eeb-4e67-8f3a-266012be9b5d}, ! Handle
  Univ Of Illinois Wi  Bondvill Ann Clg 2% Condns DB=>MWB, ! Name
  30.9,                                   ! Maximum Dry-Bulb Temperature {C}
  10.8,                                   ! Daily Dry-Bulb Temperature Range {deltaC}
  23.5,                                   ! Humidity Indicating Conditions at Maximum Dry-Bulb {BasedOnField A3}
  98792,                                  ! Barometric Pressure {Pa}
  5.3,                                    ! Wind Speed {m/s}
  240,                                    ! Wind Direction {deg}
  0,                                      ! Sky Clearness
  0,                                      ! Rain Indicator
  0,                                      ! Snow Indicator
  21,                                     ! Day of Month
  7,                                      ! Month
  SummerDesignDay,                        ! Day Type
  0,                                      ! Daylight Saving Time Indicator
  Wetbulb,                                ! Humidity Indicating Type
  ,                                       ! Humidity Indicating Day Schedule Name
  DefaultMultipliers,                     ! Dry-Bulb Temperature Range Modifier Type
  ,                                       ! Dry-Bulb Temperature Range Modifier Schedule Name
  ASHRAETau,                              ! Solar Model Indicator
  ,                                       ! Beam Solar Day Schedule Name
  ,                                       ! Diffuse Solar Day Schedule Name
  0.458,                                  ! ASHRAE Taub {dimensionless}
  2.034;                                  ! ASHRAE Taud {dimensionless}

OS:ComponentData,
  {8130fb22-e0ce-4bf4-9cb4-d0f14ebb2a6a}, ! Handle
  Component Data 1,                       ! Name
  {190df3ec-18bd-4faa-aa11-f49622a88fe9}, ! UUID
  {327608ae-d3a3-4ae2-b235-52986b137518}, ! Version UUID
  1366307417,                             ! Creation Timestamp
  1366307417,                             ! Version Timestamp
  {7702163a-3eeb-4e67-8f3a-266012be9b5d}; ! Name of Object 1

