
OS:Version,
  {1dd4dd91-d1c2-4e5f-944f-a241d6e2bae1}, ! Handle
  0.9.3;                                  ! Version Identifier

OS:SizingPeriod:DesignDay,
  {a7e66c2c-c483-4f60-831c-f09ee8d597f9}, ! Handle
  New York City/La Guard Ann Clg 2% Condns WB=>MDB, ! Name
  28.1,                                   ! Maximum Dry-Bulb Temperature {C}
  7.7,                                    ! Daily Dry-Bulb Temperature Range {deltaC}
  23.7,                                   ! Humidity Indicating Conditions at Maximum Dry-Bulb {BasedOnField A3}
  101289,                                 ! Barometric Pressure {Pa}
  5.6,                                    ! Wind Speed {m/s}
  270,                                    ! Wind Direction {deg}
  0,                                      ! Sky Clearness
  0,                                      ! Rain Indicator
  0,                                      ! Snow Indicator
  21,                                     ! Day of Month
  7,                                      ! Month
  SummerDesignDay,                        ! Day Type
  0,                                      ! Daylight Saving Time Indicator
  Wetbulb,                                ! Humidity Indicating Type
  ,                                       ! Humidity Indicating Day Schedule Name
  DefaultMultipliers,                     ! Dry-Bulb Temperature Range Modifier Type
  ,                                       ! Dry-Bulb Temperature Range Modifier Schedule Name
  ASHRAETau,                              ! Solar Model Indicator
  ,                                       ! Beam Solar Day Schedule Name
  ,                                       ! Diffuse Solar Day Schedule Name
  0.532,                                  ! ASHRAE Taub {dimensionless}
  1.821;                                  ! ASHRAE Taud {dimensionless}

OS:ComponentData,
  {ccfeee2d-e3c9-4ded-8a74-699b6a8b4b0b}, ! Handle
  Component Data 1,                       ! Name
  {2f7511d7-4bad-41a1-b385-86ee8dc53d9a}, ! UUID
  {9aeae8cc-c8e8-4787-9328-40a0be0071b4}, ! Version UUID
  1366309670,                             ! Creation Timestamp
  1366309670,                             ! Version Timestamp
  {a7e66c2c-c483-4f60-831c-f09ee8d597f9}; ! Name of Object 1

