
OS:Version,
  {3810978f-6a02-4a2f-9ee4-2ef054795b9c}, ! Handle
  0.9.3;                                  ! Version Identifier

OS:SizingPeriod:DesignDay,
  {3c8b4442-4508-4129-ac8d-b0040211d009}, ! Handle
  San Antonio Kelly Field Afb Ann Clg 1% Condns DP=>MDB, ! Name
  27.2,                                   ! Maximum Dry-Bulb Temperature {C}
  11.7,                                   ! Daily Dry-Bulb Temperature Range {deltaC}
  24.9,                                   ! Humidity Indicating Conditions at Maximum Dry-Bulb {BasedOnField A3}
  98851,                                  ! Barometric Pressure {Pa}
  4,                                      ! Wind Speed {m/s}
  150,                                    ! Wind Direction {deg}
  0,                                      ! Sky Clearness
  0,                                      ! Rain Indicator
  0,                                      ! Snow Indicator
  21,                                     ! Day of Month
  8,                                      ! Month
  SummerDesignDay,                        ! Day Type
  0,                                      ! Daylight Saving Time Indicator
  Dewpoint,                               ! Humidity Indicating Type
  ,                                       ! Humidity Indicating Day Schedule Name
  DefaultMultipliers,                     ! Dry-Bulb Temperature Range Modifier Type
  ,                                       ! Dry-Bulb Temperature Range Modifier Schedule Name
  ASHRAETau,                              ! Solar Model Indicator
  ,                                       ! Beam Solar Day Schedule Name
  ,                                       ! Diffuse Solar Day Schedule Name
  0.451,                                  ! ASHRAE Taub {dimensionless}
  2.14;                                   ! ASHRAE Taud {dimensionless}

OS:ComponentData,
  {8dfb3c87-1960-46c5-bc81-46088f279a77}, ! Handle
  Component Data 1,                       ! Name
  {f436121b-0c5a-4f11-8c57-5039c0ef72e4}, ! UUID
  {d6cc6d07-382c-4be4-9bdd-e435656d343d}, ! Version UUID
  1366310883,                             ! Creation Timestamp
  1366310883,                             ! Version Timestamp
  {3c8b4442-4508-4129-ac8d-b0040211d009}; ! Name of Object 1

