
OS:Version,
  {03445744-26e3-4ff7-879f-99bdb1418644}, ! Handle
  0.9.3;                                  ! Version Identifier

OS:SizingPeriod:DesignDay,
  {4ab6d823-3e66-4733-ac89-86d58e158107}, ! Handle
  Port Arthur Jefferson County Ann Clg 2% Condns DP=>MDB, ! Name
  28.6,                                   ! Maximum Dry-Bulb Temperature {C}
  8.9,                                    ! Daily Dry-Bulb Temperature Range {deltaC}
  25.7,                                   ! Humidity Indicating Conditions at Maximum Dry-Bulb {BasedOnField A3}
  101265,                                 ! Barometric Pressure {Pa}
  3.6,                                    ! Wind Speed {m/s}
  200,                                    ! Wind Direction {deg}
  0,                                      ! Sky Clearness
  0,                                      ! Rain Indicator
  0,                                      ! Snow Indicator
  21,                                     ! Day of Month
  7,                                      ! Month
  SummerDesignDay,                        ! Day Type
  0,                                      ! Daylight Saving Time Indicator
  Dewpoint,                               ! Humidity Indicating Type
  ,                                       ! Humidity Indicating Day Schedule Name
  DefaultMultipliers,                     ! Dry-Bulb Temperature Range Modifier Type
  ,                                       ! Dry-Bulb Temperature Range Modifier Schedule Name
  ASHRAETau,                              ! Solar Model Indicator
  ,                                       ! Beam Solar Day Schedule Name
  ,                                       ! Diffuse Solar Day Schedule Name
  0.515,                                  ! ASHRAE Taub {dimensionless}
  1.943;                                  ! ASHRAE Taud {dimensionless}

OS:ComponentData,
  {32ca4295-2b41-4d09-803e-b1a7a1cd0a20}, ! Handle
  Component Data 1,                       ! Name
  {815c3ef9-0a81-4c3b-8c94-9f5c5bcf9370}, ! UUID
  {b20bef62-6546-47ca-8186-86d133abdf11}, ! Version UUID
  1366310856,                             ! Creation Timestamp
  1366310856,                             ! Version Timestamp
  {4ab6d823-3e66-4733-ac89-86d58e158107}; ! Name of Object 1

