
OS:Version,
  {5b4beb5a-8b53-4744-b68b-72c8d06a2536}, ! Handle
  0.9.3;                                  ! Version Identifier

OS:SizingPeriod:DesignDay,
  {091b4fca-fe1e-43eb-8953-b5d4534adc55}, ! Handle
  Richmond International Ap Ann Htg 99% Condns DB, ! Name
  -6.2,                                   ! Maximum Dry-Bulb Temperature {C}
  0,                                      ! Daily Dry-Bulb Temperature Range {deltaC}
  -6.2,                                   ! Humidity Indicating Conditions at Maximum Dry-Bulb {BasedOnField A3}
  100726,                                 ! Barometric Pressure {Pa}
  3.4,                                    ! Wind Speed {m/s}
  0,                                      ! Wind Direction {deg}
  0,                                      ! Sky Clearness
  0,                                      ! Rain Indicator
  0,                                      ! Snow Indicator
  21,                                     ! Day of Month
  1,                                      ! Month
  WinterDesignDay,                        ! Day Type
  0,                                      ! Daylight Saving Time Indicator
  Wetbulb,                                ! Humidity Indicating Type
  ,                                       ! Humidity Indicating Day Schedule Name
  DefaultMultipliers,                     ! Dry-Bulb Temperature Range Modifier Type
  ,                                       ! Dry-Bulb Temperature Range Modifier Schedule Name
  ASHRAEClearSky;                         ! Solar Model Indicator

OS:ComponentData,
  {028cfee6-d4b7-4ade-9923-2ec5e355ca37}, ! Handle
  Component Data 1,                       ! Name
  {767f6c57-d5b1-4d73-b87f-c87a6974eedb}, ! UUID
  {682fb570-b438-4627-8d05-b9b384e5920f}, ! Version UUID
  1366311173,                             ! Creation Timestamp
  1366311173,                             ! Version Timestamp
  {091b4fca-fe1e-43eb-8953-b5d4534adc55}; ! Name of Object 1

