
OS:Version,
  {893dc789-e47a-4311-a884-b004f09b316f}, ! Handle
  0.9.3;                                  ! Version Identifier

OS:SizingPeriod:DesignDay,
  {524a9494-a7d7-49aa-b71d-3c1ff8677aee}, ! Handle
  San Antonio Stinson Ann Clg 1% Condns DP=>MDB, ! Name
  27.2,                                   ! Maximum Dry-Bulb Temperature {C}
  11.7,                                   ! Daily Dry-Bulb Temperature Range {deltaC}
  24.1,                                   ! Humidity Indicating Conditions at Maximum Dry-Bulb {BasedOnField A3}
  99228,                                  ! Barometric Pressure {Pa}
  4.4,                                    ! Wind Speed {m/s}
  130,                                    ! Wind Direction {deg}
  0,                                      ! Sky Clearness
  0,                                      ! Rain Indicator
  0,                                      ! Snow Indicator
  21,                                     ! Day of Month
  8,                                      ! Month
  SummerDesignDay,                        ! Day Type
  0,                                      ! Daylight Saving Time Indicator
  Dewpoint,                               ! Humidity Indicating Type
  ,                                       ! Humidity Indicating Day Schedule Name
  DefaultMultipliers,                     ! Dry-Bulb Temperature Range Modifier Type
  ,                                       ! Dry-Bulb Temperature Range Modifier Schedule Name
  ASHRAETau,                              ! Solar Model Indicator
  ,                                       ! Beam Solar Day Schedule Name
  ,                                       ! Diffuse Solar Day Schedule Name
  0.454,                                  ! ASHRAE Taub {dimensionless}
  2.127;                                  ! ASHRAE Taud {dimensionless}

OS:ComponentData,
  {a9b01eb0-6ceb-465b-8624-63c13e576a55}, ! Handle
  Component Data 1,                       ! Name
  {85eb1c2d-039b-4566-9cc9-85a45f8cee47}, ! UUID
  {fe7792dc-1857-4800-96b3-be45dc6c7c81}, ! Version UUID
  1366310887,                             ! Creation Timestamp
  1366310887,                             ! Version Timestamp
  {524a9494-a7d7-49aa-b71d-3c1ff8677aee}; ! Name of Object 1

