
OS:Version,
  {7d5a50e5-5272-496a-aba8-e35f28a0859b}, ! Handle
  0.9.3;                                  ! Version Identifier

OS:SizingPeriod:DesignDay,
  {f83ff9a3-d339-4d19-baa5-d07282f8003f}, ! Handle
  Point Mugu Nf Ann Clg .4% Condns WB=>MDB, ! Name
  24.5,                                   ! Maximum Dry-Bulb Temperature {C}
  7.8,                                    ! Daily Dry-Bulb Temperature Range {deltaC}
  21.2,                                   ! Humidity Indicating Conditions at Maximum Dry-Bulb {BasedOnField A3}
  101289,                                 ! Barometric Pressure {Pa}
  5.2,                                    ! Wind Speed {m/s}
  50,                                     ! Wind Direction {deg}
  0,                                      ! Sky Clearness
  0,                                      ! Rain Indicator
  0,                                      ! Snow Indicator
  21,                                     ! Day of Month
  8,                                      ! Month
  SummerDesignDay,                        ! Day Type
  0,                                      ! Daylight Saving Time Indicator
  Wetbulb,                                ! Humidity Indicating Type
  ,                                       ! Humidity Indicating Day Schedule Name
  DefaultMultipliers,                     ! Dry-Bulb Temperature Range Modifier Type
  ,                                       ! Dry-Bulb Temperature Range Modifier Schedule Name
  ASHRAETau,                              ! Solar Model Indicator
  ,                                       ! Beam Solar Day Schedule Name
  ,                                       ! Diffuse Solar Day Schedule Name
  0.425,                                  ! ASHRAE Taub {dimensionless}
  2.2;                                    ! ASHRAE Taud {dimensionless}

OS:ComponentData,
  {cdbbe876-b7d3-4a24-9fa4-03cacac7de52}, ! Handle
  Component Data 1,                       ! Name
  {9a13bd13-b315-4e22-be71-dfa53323c799}, ! UUID
  {da23386a-ac3a-412a-9809-e82aacab0d73}, ! Version UUID
  1366306539,                             ! Creation Timestamp
  1366306539,                             ! Version Timestamp
  {f83ff9a3-d339-4d19-baa5-d07282f8003f}; ! Name of Object 1

