
OS:Version,
  {373a962d-8610-4dd0-b528-d971dc4e89ef}, ! Handle
  0.9.3;                                  ! Version Identifier

OS:SizingPeriod:DesignDay,
  {7beac6bf-c269-452a-9f8b-20455b3d37cb}, ! Handle
  Springfield Ann Clg .4% Condns DB=>MWB, ! Name
  33.8,                                   ! Maximum Dry-Bulb Temperature {C}
  10.7,                                   ! Daily Dry-Bulb Temperature Range {deltaC}
  24.8,                                   ! Humidity Indicating Conditions at Maximum Dry-Bulb {BasedOnField A3}
  99099,                                  ! Barometric Pressure {Pa}
  4.6,                                    ! Wind Speed {m/s}
  230,                                    ! Wind Direction {deg}
  0,                                      ! Sky Clearness
  0,                                      ! Rain Indicator
  0,                                      ! Snow Indicator
  21,                                     ! Day of Month
  7,                                      ! Month
  SummerDesignDay,                        ! Day Type
  0,                                      ! Daylight Saving Time Indicator
  Wetbulb,                                ! Humidity Indicating Type
  ,                                       ! Humidity Indicating Day Schedule Name
  DefaultMultipliers,                     ! Dry-Bulb Temperature Range Modifier Type
  ,                                       ! Dry-Bulb Temperature Range Modifier Schedule Name
  ASHRAETau,                              ! Solar Model Indicator
  ,                                       ! Beam Solar Day Schedule Name
  ,                                       ! Diffuse Solar Day Schedule Name
  0.463,                                  ! ASHRAE Taub {dimensionless}
  2.022;                                  ! ASHRAE Taud {dimensionless}

OS:ComponentData,
  {219a29fc-b4f1-4d0b-a294-077a2c3a2979}, ! Handle
  Component Data 1,                       ! Name
  {d897368b-e6ce-4b4b-984c-3ee8b99770c8}, ! UUID
  {8e48a603-ff7c-4970-a48f-c4bab6f33f78}, ! Version UUID
  1366307400,                             ! Creation Timestamp
  1366307400,                             ! Version Timestamp
  {7beac6bf-c269-452a-9f8b-20455b3d37cb}; ! Name of Object 1

