
OS:Version,
  {753928fe-fa91-48ec-97fd-4ddeea4a0b2f}, ! Handle
  0.9.3;                                  ! Version Identifier

OS:SizingPeriod:DesignDay,
  {c7cdfb15-67fb-4091-a75f-c1a7f7e0d688}, ! Handle
  SHERIDAN Ann Clg 2% Condns Enth=>MDB,   ! Name
  28.6,                                   ! Maximum Dry-Bulb Temperature {C}
  17.2,                                   ! Daily Dry-Bulb Temperature Range {deltaC}
  54800,                                  ! Humidity Indicating Conditions at Maximum Dry-Bulb {BasedOnField A3}
  87619,                                  ! Barometric Pressure {Pa}
  3.7,                                    ! Wind Speed {m/s}
  310,                                    ! Wind Direction {deg}
  0,                                      ! Sky Clearness
  0,                                      ! Rain Indicator
  0,                                      ! Snow Indicator
  21,                                     ! Day of Month
  7,                                      ! Month
  SummerDesignDay,                        ! Day Type
  0,                                      ! Daylight Saving Time Indicator
  Enthalpy,                               ! Humidity Indicating Type
  ,                                       ! Humidity Indicating Day Schedule Name
  DefaultMultipliers,                     ! Dry-Bulb Temperature Range Modifier Type
  ,                                       ! Dry-Bulb Temperature Range Modifier Schedule Name
  ASHRAETau,                              ! Solar Model Indicator
  ,                                       ! Beam Solar Day Schedule Name
  ,                                       ! Diffuse Solar Day Schedule Name
  0.407,                                  ! ASHRAE Taub {dimensionless}
  2.098;                                  ! ASHRAE Taud {dimensionless}

