
OS:Version,
  {daca0d7f-6bcf-49b9-9bee-58721c9e03c6}, ! Handle
  0.9.3;                                  ! Version Identifier

OS:SizingPeriod:DesignDay,
  {19816968-f1c0-4339-81c5-bf3fbeb527f2}, ! Handle
  San Antonio Stinson Ann Clg .4% Condns DB=>MWB, ! Name
  37.8,                                   ! Maximum Dry-Bulb Temperature {C}
  11.7,                                   ! Daily Dry-Bulb Temperature Range {deltaC}
  23.6,                                   ! Humidity Indicating Conditions at Maximum Dry-Bulb {BasedOnField A3}
  99228,                                  ! Barometric Pressure {Pa}
  4.4,                                    ! Wind Speed {m/s}
  130,                                    ! Wind Direction {deg}
  0,                                      ! Sky Clearness
  0,                                      ! Rain Indicator
  0,                                      ! Snow Indicator
  21,                                     ! Day of Month
  8,                                      ! Month
  SummerDesignDay,                        ! Day Type
  0,                                      ! Daylight Saving Time Indicator
  Wetbulb,                                ! Humidity Indicating Type
  ,                                       ! Humidity Indicating Day Schedule Name
  DefaultMultipliers,                     ! Dry-Bulb Temperature Range Modifier Type
  ,                                       ! Dry-Bulb Temperature Range Modifier Schedule Name
  ASHRAETau,                              ! Solar Model Indicator
  ,                                       ! Beam Solar Day Schedule Name
  ,                                       ! Diffuse Solar Day Schedule Name
  0.454,                                  ! ASHRAE Taub {dimensionless}
  2.127;                                  ! ASHRAE Taud {dimensionless}

OS:ComponentData,
  {88e54479-ca7e-4f5d-9411-00a97be7b7ed}, ! Handle
  Component Data 1,                       ! Name
  {1700137f-4d52-4ae8-8391-ab8ff60a02db}, ! UUID
  {373fc6a2-aaad-4272-88e0-1f7c34a20e10}, ! Version UUID
  1366310886,                             ! Creation Timestamp
  1366310886,                             ! Version Timestamp
  {19816968-f1c0-4339-81c5-bf3fbeb527f2}; ! Name of Object 1

