
OS:Version,
  {ef3f17b0-be4d-44d9-8072-68fcd05cad1b}, ! Handle
  0.9.3;                                  ! Version Identifier

OS:SizingPeriod:DesignDay,
  {48d35c0a-6e45-4d70-90f2-443c746c1f43}, ! Handle
  Pensacola Forest Sherman Nas Ann Clg 1% Condns Enth=>MDB, ! Name
  31,                                     ! Maximum Dry-Bulb Temperature {C}
  8.3,                                    ! Daily Dry-Bulb Temperature Range {deltaC}
  84500,                                  ! Humidity Indicating Conditions at Maximum Dry-Bulb {BasedOnField A3}
  101205,                                 ! Barometric Pressure {Pa}
  4.5,                                    ! Wind Speed {m/s}
  210,                                    ! Wind Direction {deg}
  0,                                      ! Sky Clearness
  0,                                      ! Rain Indicator
  0,                                      ! Snow Indicator
  21,                                     ! Day of Month
  7,                                      ! Month
  SummerDesignDay,                        ! Day Type
  0,                                      ! Daylight Saving Time Indicator
  Enthalpy,                               ! Humidity Indicating Type
  ,                                       ! Humidity Indicating Day Schedule Name
  DefaultMultipliers,                     ! Dry-Bulb Temperature Range Modifier Type
  ,                                       ! Dry-Bulb Temperature Range Modifier Schedule Name
  ASHRAETau,                              ! Solar Model Indicator
  ,                                       ! Beam Solar Day Schedule Name
  ,                                       ! Diffuse Solar Day Schedule Name
  0.531,                                  ! ASHRAE Taub {dimensionless}
  1.898;                                  ! ASHRAE Taud {dimensionless}

OS:ComponentData,
  {ae8ecd24-170c-4fbe-bec6-77150056e3ee}, ! Handle
  Component Data 1,                       ! Name
  {69ee9253-d05b-4cad-9845-0f2cc39ede2f}, ! UUID
  {419d81b6-6101-49b0-ae7b-b47e8d7a7a7c}, ! Version UUID
  1366306903,                             ! Creation Timestamp
  1366306903,                             ! Version Timestamp
  {48d35c0a-6e45-4d70-90f2-443c746c1f43}; ! Name of Object 1

