
OS:Version,
  {c427b6c2-5bb0-4845-bc10-2ecac8f32bb8}, ! Handle
  0.9.3;                                  ! Version Identifier

OS:SizingPeriod:DesignDay,
  {98674468-b37a-4520-afad-a20eb9bed8d6}, ! Handle
  Pellston Emmet County Ap Ann Htg Wind 99.6% Condns WS=>MCDB, ! Name
  -5.8,                                   ! Maximum Dry-Bulb Temperature {C}
  0,                                      ! Daily Dry-Bulb Temperature Range {deltaC}
  -5.8,                                   ! Humidity Indicating Conditions at Maximum Dry-Bulb {BasedOnField A3}
  98733,                                  ! Barometric Pressure {Pa}
  12.9,                                   ! Wind Speed {m/s}
  290,                                    ! Wind Direction {deg}
  0,                                      ! Sky Clearness
  0,                                      ! Rain Indicator
  0,                                      ! Snow Indicator
  21,                                     ! Day of Month
  1,                                      ! Month
  WinterDesignDay,                        ! Day Type
  0,                                      ! Daylight Saving Time Indicator
  Wetbulb,                                ! Humidity Indicating Type
  ,                                       ! Humidity Indicating Day Schedule Name
  DefaultMultipliers,                     ! Dry-Bulb Temperature Range Modifier Type
  ,                                       ! Dry-Bulb Temperature Range Modifier Schedule Name
  ASHRAEClearSky;                         ! Solar Model Indicator

OS:ComponentData,
  {0681f670-f61d-405c-8d1a-66ff39f1af60}, ! Handle
  Component Data 1,                       ! Name
  {cbe58adf-ed16-4af4-b023-be66f95a416a}, ! UUID
  {2039a097-24cf-4554-90a8-6a682ed0a9bc}, ! Version UUID
  1366308087,                             ! Creation Timestamp
  1366308087,                             ! Version Timestamp
  {98674468-b37a-4520-afad-a20eb9bed8d6}; ! Name of Object 1

