
OS:Version,
  {53b5017f-8553-4d6d-aa10-fee25a62f5aa}, ! Handle
  0.9.3;                                  ! Version Identifier

OS:SizingPeriod:DesignDay,
  {60ac7137-f412-402d-a3b6-9ea894de336b}, ! Handle
  Redwood Falls Muni Ann Clg 2% Condns DP=>MDB, ! Name
  26.5,                                   ! Maximum Dry-Bulb Temperature {C}
  11.4,                                   ! Daily Dry-Bulb Temperature Range {deltaC}
  21.6,                                   ! Humidity Indicating Conditions at Maximum Dry-Bulb {BasedOnField A3}
  97633,                                  ! Barometric Pressure {Pa}
  6.3,                                    ! Wind Speed {m/s}
  180,                                    ! Wind Direction {deg}
  0,                                      ! Sky Clearness
  0,                                      ! Rain Indicator
  0,                                      ! Snow Indicator
  21,                                     ! Day of Month
  7,                                      ! Month
  SummerDesignDay,                        ! Day Type
  0,                                      ! Daylight Saving Time Indicator
  Dewpoint,                               ! Humidity Indicating Type
  ,                                       ! Humidity Indicating Day Schedule Name
  DefaultMultipliers,                     ! Dry-Bulb Temperature Range Modifier Type
  ,                                       ! Dry-Bulb Temperature Range Modifier Schedule Name
  ASHRAETau,                              ! Solar Model Indicator
  ,                                       ! Beam Solar Day Schedule Name
  ,                                       ! Diffuse Solar Day Schedule Name
  0.402,                                  ! ASHRAE Taub {dimensionless}
  2.246;                                  ! ASHRAE Taud {dimensionless}

OS:ComponentData,
  {8a602e93-b12a-46b4-addf-fcbe3893e207}, ! Handle
  Component Data 1,                       ! Name
  {ab5cae5c-ec2b-4b81-949b-546070741804}, ! UUID
  {9de884ea-8af7-495f-bc93-c9ec6c85d1a9}, ! Version UUID
  1366308382,                             ! Creation Timestamp
  1366308382,                             ! Version Timestamp
  {60ac7137-f412-402d-a3b6-9ea894de336b}; ! Name of Object 1

