
OS:Version,
  {c091277b-34b9-404f-b883-4dbab2e21be8}, ! Handle
  0.9.3;                                  ! Version Identifier

OS:SizingPeriod:DesignDay,
  {0aa95f08-9bc9-46d7-9982-cbfff064f711}, ! Handle
  Truth or Consequences Ann Clg 2% Condns WB=>MDB, ! Name
  28,                                     ! Maximum Dry-Bulb Temperature {C}
  13.9,                                   ! Daily Dry-Bulb Temperature Range {deltaC}
  18.3,                                   ! Humidity Indicating Conditions at Maximum Dry-Bulb {BasedOnField A3}
  84784,                                  ! Barometric Pressure {Pa}
  4.6,                                    ! Wind Speed {m/s}
  170,                                    ! Wind Direction {deg}
  0,                                      ! Sky Clearness
  0,                                      ! Rain Indicator
  0,                                      ! Snow Indicator
  21,                                     ! Day of Month
  7,                                      ! Month
  SummerDesignDay,                        ! Day Type
  0,                                      ! Daylight Saving Time Indicator
  Wetbulb,                                ! Humidity Indicating Type
  ,                                       ! Humidity Indicating Day Schedule Name
  DefaultMultipliers,                     ! Dry-Bulb Temperature Range Modifier Type
  ,                                       ! Dry-Bulb Temperature Range Modifier Schedule Name
  ASHRAETau,                              ! Solar Model Indicator
  ,                                       ! Beam Solar Day Schedule Name
  ,                                       ! Diffuse Solar Day Schedule Name
  0.543,                                  ! ASHRAE Taub {dimensionless}
  1.689;                                  ! ASHRAE Taud {dimensionless}

OS:ComponentData,
  {104474c7-90a5-49df-95fb-add9fc1f51f3}, ! Handle
  Component Data 1,                       ! Name
  {41aa36c5-1d99-4459-88ee-5d8065ba93d8}, ! UUID
  {a9fe035b-6247-427e-a5a6-b8fa72d3a566}, ! Version UUID
  1366309444,                             ! Creation Timestamp
  1366309444,                             ! Version Timestamp
  {0aa95f08-9bc9-46d7-9982-cbfff064f711}; ! Name of Object 1

