
OS:Version,
  {9b54bd29-cced-4716-bf3f-5acccd3f1ac9}, ! Handle
  0.9.3;                                  ! Version Identifier

OS:SizingPeriod:DesignDay,
  {72c74666-2fe6-4257-be3f-b2d4a4f68686}, ! Handle
  Monroe Co Ann Clg 2% Condns DP=>MDB,    ! Name
  26.9,                                   ! Maximum Dry-Bulb Temperature {C}
  10.8,                                   ! Daily Dry-Bulb Temperature Range {deltaC}
  22.9,                                   ! Humidity Indicating Conditions at Maximum Dry-Bulb {BasedOnField A3}
  98193,                                  ! Barometric Pressure {Pa}
  3.4,                                    ! Wind Speed {m/s}
  240,                                    ! Wind Direction {deg}
  0,                                      ! Sky Clearness
  0,                                      ! Rain Indicator
  0,                                      ! Snow Indicator
  21,                                     ! Day of Month
  7,                                      ! Month
  SummerDesignDay,                        ! Day Type
  0,                                      ! Daylight Saving Time Indicator
  Dewpoint,                               ! Humidity Indicating Type
  ,                                       ! Humidity Indicating Day Schedule Name
  DefaultMultipliers,                     ! Dry-Bulb Temperature Range Modifier Type
  ,                                       ! Dry-Bulb Temperature Range Modifier Schedule Name
  ASHRAETau,                              ! Solar Model Indicator
  ,                                       ! Beam Solar Day Schedule Name
  ,                                       ! Diffuse Solar Day Schedule Name
  0.485,                                  ! ASHRAE Taub {dimensionless}
  1.938;                                  ! ASHRAE Taud {dimensionless}

OS:ComponentData,
  {1b151c2d-8737-45e0-a1e5-62f3bfddd237}, ! Handle
  Component Data 1,                       ! Name
  {37aec713-13a9-4469-9260-f6e4a30b06cb}, ! UUID
  {8ecd417e-2812-4600-ba2f-24f1d3bd94e0}, ! Version UUID
  1366307476,                             ! Creation Timestamp
  1366307476,                             ! Version Timestamp
  {72c74666-2fe6-4257-be3f-b2d4a4f68686}; ! Name of Object 1

