
OS:Version,
  {3c5f09b7-b514-4aeb-8f43-8fb696e1c9bc}, ! Handle
  0.9.3;                                  ! Version Identifier

OS:SizingPeriod:DesignDay,
  {db3f4ea2-7b6d-4e82-8054-6aa3f0b00d24}, ! Handle
  TRAVERSE_CITY Ann Clg 1% Condns DP=>MDB, ! Name
  25.4,                                   ! Maximum Dry-Bulb Temperature {C}
  11.8,                                   ! Daily Dry-Bulb Temperature Range {deltaC}
  21.1,                                   ! Humidity Indicating Conditions at Maximum Dry-Bulb {BasedOnField A3}
  99040,                                  ! Barometric Pressure {Pa}
  5.1,                                    ! Wind Speed {m/s}
  230,                                    ! Wind Direction {deg}
  0,                                      ! Sky Clearness
  0,                                      ! Rain Indicator
  0,                                      ! Snow Indicator
  21,                                     ! Day of Month
  7,                                      ! Month
  SummerDesignDay,                        ! Day Type
  0,                                      ! Daylight Saving Time Indicator
  Dewpoint,                               ! Humidity Indicating Type
  ,                                       ! Humidity Indicating Day Schedule Name
  DefaultMultipliers,                     ! Dry-Bulb Temperature Range Modifier Type
  ,                                       ! Dry-Bulb Temperature Range Modifier Schedule Name
  ASHRAETau,                              ! Solar Model Indicator
  ,                                       ! Beam Solar Day Schedule Name
  ,                                       ! Diffuse Solar Day Schedule Name
  0.422,                                  ! ASHRAE Taub {dimensionless}
  2.177;                                  ! ASHRAE Taud {dimensionless}

OS:ComponentData,
  {2250e13f-69c7-4fdd-a948-06bf6b93e6f4}, ! Handle
  Component Data 1,                       ! Name
  {03feee09-64e8-452b-91d2-7683002fe6be}, ! UUID
  {892d6489-2f53-4c75-aa91-0af986878dfd}, ! Version UUID
  1366308132,                             ! Creation Timestamp
  1366308132,                             ! Version Timestamp
  {db3f4ea2-7b6d-4e82-8054-6aa3f0b00d24}; ! Name of Object 1

