
OS:Version,
  {50cc2248-651f-4776-9a64-09dd3c05672a}, ! Handle
  0.9.3;                                  ! Version Identifier

OS:SizingPeriod:DesignDay,
  {cf9ecbed-cadb-4750-b03d-83b2f692791d}, ! Handle
  Palmer Municipal Ann Clg 1% Condns DB=>MWB, ! Name
  22.1,                                   ! Maximum Dry-Bulb Temperature {C}
  8.6,                                    ! Daily Dry-Bulb Temperature Range {deltaC}
  14.7,                                   ! Humidity Indicating Conditions at Maximum Dry-Bulb {BasedOnField A3}
  100475,                                 ! Barometric Pressure {Pa}
  3.5,                                    ! Wind Speed {m/s}
  140,                                    ! Wind Direction {deg}
  0,                                      ! Sky Clearness
  0,                                      ! Rain Indicator
  0,                                      ! Snow Indicator
  21,                                     ! Day of Month
  7,                                      ! Month
  SummerDesignDay,                        ! Day Type
  0,                                      ! Daylight Saving Time Indicator
  Wetbulb,                                ! Humidity Indicating Type
  ,                                       ! Humidity Indicating Day Schedule Name
  DefaultMultipliers,                     ! Dry-Bulb Temperature Range Modifier Type
  ,                                       ! Dry-Bulb Temperature Range Modifier Schedule Name
  ASHRAETau,                              ! Solar Model Indicator
  ,                                       ! Beam Solar Day Schedule Name
  ,                                       ! Diffuse Solar Day Schedule Name
  0.409,                                  ! ASHRAE Taub {dimensionless}
  2.079;                                  ! ASHRAE Taud {dimensionless}

OS:ComponentData,
  {d77923c5-e792-4fdb-83da-aed0122091ba}, ! Handle
  Component Data 1,                       ! Name
  {32c07242-22b3-43d5-8f46-e4480121273b}, ! UUID
  {5258c376-c580-4f45-bfbd-0e0b01ca550d}, ! Version UUID
  1366305476,                             ! Creation Timestamp
  1366305476,                             ! Version Timestamp
  {cf9ecbed-cadb-4750-b03d-83b2f692791d}; ! Name of Object 1

