
OS:Version,
  {c2edc271-7c2d-4b5d-b52a-0c38f06d8570}, ! Handle
  0.9.3;                                  ! Version Identifier

OS:SizingPeriod:DesignDay,
  {81a701e5-f196-40bc-8b5e-daf81a21dcf9}, ! Handle
  Vichy Rolla Natl Arpt Ann Clg 1% Condns DB=>MWB, ! Name
  33.4,                                   ! Maximum Dry-Bulb Temperature {C}
  11.1,                                   ! Daily Dry-Bulb Temperature Range {deltaC}
  23.8,                                   ! Humidity Indicating Conditions at Maximum Dry-Bulb {BasedOnField A3}
  97353,                                  ! Barometric Pressure {Pa}
  4.1,                                    ! Wind Speed {m/s}
  230,                                    ! Wind Direction {deg}
  0,                                      ! Sky Clearness
  0,                                      ! Rain Indicator
  0,                                      ! Snow Indicator
  21,                                     ! Day of Month
  7,                                      ! Month
  SummerDesignDay,                        ! Day Type
  0,                                      ! Daylight Saving Time Indicator
  Wetbulb,                                ! Humidity Indicating Type
  ,                                       ! Humidity Indicating Day Schedule Name
  DefaultMultipliers,                     ! Dry-Bulb Temperature Range Modifier Type
  ,                                       ! Dry-Bulb Temperature Range Modifier Schedule Name
  ASHRAETau,                              ! Solar Model Indicator
  ,                                       ! Beam Solar Day Schedule Name
  ,                                       ! Diffuse Solar Day Schedule Name
  0.446,                                  ! ASHRAE Taub {dimensionless}
  2.105;                                  ! ASHRAE Taud {dimensionless}

OS:ComponentData,
  {c802e4b6-1ce9-43dd-b9d7-ab63d2f9c880}, ! Handle
  Component Data 1,                       ! Name
  {8b071fac-f161-44e0-b938-9cb674275abc}, ! UUID
  {d02e9df1-57aa-4164-971c-be0712716981}, ! Version UUID
  1366308550,                             ! Creation Timestamp
  1366308550,                             ! Version Timestamp
  {81a701e5-f196-40bc-8b5e-daf81a21dcf9}; ! Name of Object 1

