
OS:Version,
  {22890f48-d1f3-46b1-bb1a-9e66564d3c87}, ! Handle
  0.9.3;                                  ! Version Identifier

OS:SizingPeriod:DesignDay,
  {d6a45505-5a00-4532-b2dd-29a716a827e5}, ! Handle
  Robert Gray Aaf Ann Clg 2% Condns DB=>MWB, ! Name
  35.5,                                   ! Maximum Dry-Bulb Temperature {C}
  12,                                     ! Daily Dry-Bulb Temperature Range {deltaC}
  23.1,                                   ! Humidity Indicating Conditions at Maximum Dry-Bulb {BasedOnField A3}
  97633,                                  ! Barometric Pressure {Pa}
  4.2,                                    ! Wind Speed {m/s}
  160,                                    ! Wind Direction {deg}
  0,                                      ! Sky Clearness
  0,                                      ! Rain Indicator
  0,                                      ! Snow Indicator
  21,                                     ! Day of Month
  8,                                      ! Month
  SummerDesignDay,                        ! Day Type
  0,                                      ! Daylight Saving Time Indicator
  Wetbulb,                                ! Humidity Indicating Type
  ,                                       ! Humidity Indicating Day Schedule Name
  DefaultMultipliers,                     ! Dry-Bulb Temperature Range Modifier Type
  ,                                       ! Dry-Bulb Temperature Range Modifier Schedule Name
  ASHRAETau,                              ! Solar Model Indicator
  ,                                       ! Beam Solar Day Schedule Name
  ,                                       ! Diffuse Solar Day Schedule Name
  0.443,                                  ! ASHRAE Taub {dimensionless}
  2.148;                                  ! ASHRAE Taud {dimensionless}

OS:ComponentData,
  {0c80918a-e893-4eb2-ac9b-09883685b7ff}, ! Handle
  Component Data 1,                       ! Name
  {bfc5c356-df11-4b28-9487-392c1ab80487}, ! UUID
  {fbf5ce7b-387c-4714-b00d-f5852e633ac2}, ! Version UUID
  1366310763,                             ! Creation Timestamp
  1366310763,                             ! Version Timestamp
  {d6a45505-5a00-4532-b2dd-29a716a827e5}; ! Name of Object 1

