
OS:Version,
  {16bbd9c6-5530-4ad1-a314-0faf7454105b}, ! Handle
  0.9.3;                                  ! Version Identifier

OS:SizingPeriod:DesignDay,
  {055a75c4-472f-49f0-bf12-d7638a0852d0}, ! Handle
  Sitka Japonski Ap Ann Clg 1% Condns DP=>MDB, ! Name
  15.6,                                   ! Maximum Dry-Bulb Temperature {C}
  4.8,                                    ! Daily Dry-Bulb Temperature Range {deltaC}
  14,                                     ! Humidity Indicating Conditions at Maximum Dry-Bulb {BasedOnField A3}
  101277,                                 ! Barometric Pressure {Pa}
  3.4,                                    ! Wind Speed {m/s}
  220,                                    ! Wind Direction {deg}
  0,                                      ! Sky Clearness
  0,                                      ! Rain Indicator
  0,                                      ! Snow Indicator
  21,                                     ! Day of Month
  8,                                      ! Month
  SummerDesignDay,                        ! Day Type
  0,                                      ! Daylight Saving Time Indicator
  Dewpoint,                               ! Humidity Indicating Type
  ,                                       ! Humidity Indicating Day Schedule Name
  DefaultMultipliers,                     ! Dry-Bulb Temperature Range Modifier Type
  ,                                       ! Dry-Bulb Temperature Range Modifier Schedule Name
  ASHRAETau,                              ! Solar Model Indicator
  ,                                       ! Beam Solar Day Schedule Name
  ,                                       ! Diffuse Solar Day Schedule Name
  0.368,                                  ! ASHRAE Taub {dimensionless}
  2.385;                                  ! ASHRAE Taud {dimensionless}

OS:ComponentData,
  {8f80432e-5bbc-487a-885c-605abe82bf1d}, ! Handle
  Component Data 1,                       ! Name
  {14c0b1f7-df4c-41ac-85a1-cd9a7db46ece}, ! UUID
  {efbc7675-8509-45c4-aa26-a848e58593ec}, ! Version UUID
  1366305553,                             ! Creation Timestamp
  1366305553,                             ! Version Timestamp
  {055a75c4-472f-49f0-bf12-d7638a0852d0}; ! Name of Object 1

