
OS:Version,
  {6cc4e030-cbb8-4577-ab76-674ff84aafa8}, ! Handle
  0.9.3;                                  ! Version Identifier

OS:SizingPeriod:DesignDay,
  {3769b39e-ce6c-40fb-b3d2-68ec6376f92c}, ! Handle
  Morgantown Hart Field Ann Clg 1% Condns DP=>MDB, ! Name
  25.6,                                   ! Maximum Dry-Bulb Temperature {C}
  10.7,                                   ! Daily Dry-Bulb Temperature Range {deltaC}
  21.9,                                   ! Humidity Indicating Conditions at Maximum Dry-Bulb {BasedOnField A3}
  96866,                                  ! Barometric Pressure {Pa}
  3.2,                                    ! Wind Speed {m/s}
  240,                                    ! Wind Direction {deg}
  0,                                      ! Sky Clearness
  0,                                      ! Rain Indicator
  0,                                      ! Snow Indicator
  21,                                     ! Day of Month
  7,                                      ! Month
  SummerDesignDay,                        ! Day Type
  0,                                      ! Daylight Saving Time Indicator
  Dewpoint,                               ! Humidity Indicating Type
  ,                                       ! Humidity Indicating Day Schedule Name
  DefaultMultipliers,                     ! Dry-Bulb Temperature Range Modifier Type
  ,                                       ! Dry-Bulb Temperature Range Modifier Schedule Name
  ASHRAETau,                              ! Solar Model Indicator
  ,                                       ! Beam Solar Day Schedule Name
  ,                                       ! Diffuse Solar Day Schedule Name
  0.5,                                    ! ASHRAE Taub {dimensionless}
  1.879;                                  ! ASHRAE Taud {dimensionless}

OS:ComponentData,
  {bc94b07f-2df9-48be-86cb-4539dca6690f}, ! Handle
  Component Data 1,                       ! Name
  {9738354e-883a-41f7-ab29-0a0a019e8f86}, ! UUID
  {e1520c21-9060-4506-b53b-cbdd4935e504}, ! Version UUID
  1366311672,                             ! Creation Timestamp
  1366311672,                             ! Version Timestamp
  {3769b39e-ce6c-40fb-b3d2-68ec6376f92c}; ! Name of Object 1

