
OS:Version,
  {a2f112ff-520b-4e4d-820d-dcb1d581168c}, ! Handle
  0.9.3;                                  ! Version Identifier

OS:SizingPeriod:DesignDay,
  {bd0de8dc-1ac4-4b5a-8bc5-e68fd4ff3791}, ! Handle
  Palm Springs Thermal Ap Ann Htg Wind 99% Condns WS=>MCDB, ! Name
  17.1,                                   ! Maximum Dry-Bulb Temperature {C}
  0,                                      ! Daily Dry-Bulb Temperature Range {deltaC}
  17.1,                                   ! Humidity Indicating Conditions at Maximum Dry-Bulb {BasedOnField A3}
  101734,                                 ! Barometric Pressure {Pa}
  7.8,                                    ! Wind Speed {m/s}
  340,                                    ! Wind Direction {deg}
  0,                                      ! Sky Clearness
  0,                                      ! Rain Indicator
  0,                                      ! Snow Indicator
  21,                                     ! Day of Month
  12,                                     ! Month
  WinterDesignDay,                        ! Day Type
  0,                                      ! Daylight Saving Time Indicator
  Wetbulb,                                ! Humidity Indicating Type
  ,                                       ! Humidity Indicating Day Schedule Name
  DefaultMultipliers,                     ! Dry-Bulb Temperature Range Modifier Type
  ,                                       ! Dry-Bulb Temperature Range Modifier Schedule Name
  ASHRAEClearSky;                         ! Solar Model Indicator

OS:ComponentData,
  {60148075-90e0-4866-9c9e-3bc84927e4c2}, ! Handle
  Component Data 1,                       ! Name
  {39e48ac8-6622-4938-b74f-deb16dc9c0bf}, ! UUID
  {8fef59dc-fde1-401f-aea0-a28e759b7536}, ! Version UUID
  1366306527,                             ! Creation Timestamp
  1366306527,                             ! Version Timestamp
  {bd0de8dc-1ac4-4b5a-8bc5-e68fd4ff3791}; ! Name of Object 1

