
OS:Version,
  {a59e8f59-29a2-4747-bfc7-cb8cf3e9a710}, ! Handle
  0.9.3;                                  ! Version Identifier

OS:SizingPeriod:DesignDay,
  {39feaaba-0681-4881-9472-01be72d5ac3c}, ! Handle
  San Francisco Intl Ap Ann Clg .4% Condns DP=>MDB, ! Name
  19.9,                                   ! Maximum Dry-Bulb Temperature {C}
  8.5,                                    ! Daily Dry-Bulb Temperature Range {deltaC}
  16.1,                                   ! Humidity Indicating Conditions at Maximum Dry-Bulb {BasedOnField A3}
  101301,                                 ! Barometric Pressure {Pa}
  5.9,                                    ! Wind Speed {m/s}
  310,                                    ! Wind Direction {deg}
  0,                                      ! Sky Clearness
  0,                                      ! Rain Indicator
  0,                                      ! Snow Indicator
  21,                                     ! Day of Month
  8,                                      ! Month
  SummerDesignDay,                        ! Day Type
  0,                                      ! Daylight Saving Time Indicator
  Dewpoint,                               ! Humidity Indicating Type
  ,                                       ! Humidity Indicating Day Schedule Name
  DefaultMultipliers,                     ! Dry-Bulb Temperature Range Modifier Type
  ,                                       ! Dry-Bulb Temperature Range Modifier Schedule Name
  ASHRAETau,                              ! Solar Model Indicator
  ,                                       ! Beam Solar Day Schedule Name
  ,                                       ! Diffuse Solar Day Schedule Name
  0.365,                                  ! ASHRAE Taub {dimensionless}
  2.435;                                  ! ASHRAE Taud {dimensionless}

OS:ComponentData,
  {021060f2-9624-4a2d-85be-abd9f03d2d48}, ! Handle
  Component Data 1,                       ! Name
  {94207999-6aee-4e0a-88e8-6f00f0efe6af}, ! UUID
  {ffcae96a-67d6-4cd5-a134-4d244519da25}, ! Version UUID
  1366306596,                             ! Creation Timestamp
  1366306596,                             ! Version Timestamp
  {39feaaba-0681-4881-9472-01be72d5ac3c}; ! Name of Object 1

