
OS:Version,
  {c4a5766a-57f9-4794-a112-d9097e05bc48}, ! Handle
  0.9.3;                                  ! Version Identifier

OS:SizingPeriod:DesignDay,
  {07a45681-b15d-4d06-9553-2bb7ef9a1a9f}, ! Handle
  PENDLETON Ann Clg 1% Condns DP=>MDB,    ! Name
  21.8,                                   ! Maximum Dry-Bulb Temperature {C}
  15.8,                                   ! Daily Dry-Bulb Temperature Range {deltaC}
  13.3,                                   ! Humidity Indicating Conditions at Maximum Dry-Bulb {BasedOnField A3}
  95966,                                  ! Barometric Pressure {Pa}
  4.1,                                    ! Wind Speed {m/s}
  300,                                    ! Wind Direction {deg}
  0,                                      ! Sky Clearness
  0,                                      ! Rain Indicator
  0,                                      ! Snow Indicator
  21,                                     ! Day of Month
  7,                                      ! Month
  SummerDesignDay,                        ! Day Type
  0,                                      ! Daylight Saving Time Indicator
  Dewpoint,                               ! Humidity Indicating Type
  ,                                       ! Humidity Indicating Day Schedule Name
  DefaultMultipliers,                     ! Dry-Bulb Temperature Range Modifier Type
  ,                                       ! Dry-Bulb Temperature Range Modifier Schedule Name
  ASHRAETau,                              ! Solar Model Indicator
  ,                                       ! Beam Solar Day Schedule Name
  ,                                       ! Diffuse Solar Day Schedule Name
  0.384,                                  ! ASHRAE Taub {dimensionless}
  2.273;                                  ! ASHRAE Taud {dimensionless}

OS:ComponentData,
  {5b555a1e-af33-4fc4-83a1-44cab2575555}, ! Handle
  Component Data 1,                       ! Name
  {8550f72e-2c4b-4047-9065-b37f881c9296}, ! UUID
  {63d55b30-71c5-401d-abbe-0534dc41d1b2}, ! Version UUID
  1366310064,                             ! Creation Timestamp
  1366310064,                             ! Version Timestamp
  {07a45681-b15d-4d06-9553-2bb7ef9a1a9f}; ! Name of Object 1

