
OS:Version,
  {b90046e0-405a-4b72-9785-660a503d43e0}, ! Handle
  0.9.3;                                  ! Version Identifier

OS:SizingPeriod:DesignDay,
  {23e6ba63-b4cc-4959-aebc-3a1810f5cc1f}, ! Handle
  Patuxent River NAS Ann Clg 1% Condns WB=>MDB, ! Name
  30.2,                                   ! Maximum Dry-Bulb Temperature {C}
  8.6,                                    ! Daily Dry-Bulb Temperature Range {deltaC}
  25.4,                                   ! Humidity Indicating Conditions at Maximum Dry-Bulb {BasedOnField A3}
  101157,                                 ! Barometric Pressure {Pa}
  3.9,                                    ! Wind Speed {m/s}
  250,                                    ! Wind Direction {deg}
  0,                                      ! Sky Clearness
  0,                                      ! Rain Indicator
  0,                                      ! Snow Indicator
  21,                                     ! Day of Month
  7,                                      ! Month
  SummerDesignDay,                        ! Day Type
  0,                                      ! Daylight Saving Time Indicator
  Wetbulb,                                ! Humidity Indicating Type
  ,                                       ! Humidity Indicating Day Schedule Name
  DefaultMultipliers,                     ! Dry-Bulb Temperature Range Modifier Type
  ,                                       ! Dry-Bulb Temperature Range Modifier Schedule Name
  ASHRAETau,                              ! Solar Model Indicator
  ,                                       ! Beam Solar Day Schedule Name
  ,                                       ! Diffuse Solar Day Schedule Name
  0.592,                                  ! ASHRAE Taub {dimensionless}
  1.683;                                  ! ASHRAE Taud {dimensionless}

OS:ComponentData,
  {c62edae2-8938-471e-a853-ec1ff3b16896}, ! Handle
  Component Data 1,                       ! Name
  {667729b3-6a01-43b6-9613-28882ad4c8e9}, ! UUID
  {9e8f9ded-fd55-4c7d-9262-b1123c6d3547}, ! Version UUID
  1366307854,                             ! Creation Timestamp
  1366307854,                             ! Version Timestamp
  {23e6ba63-b4cc-4959-aebc-3a1810f5cc1f}; ! Name of Object 1

