
OS:Version,
  {9516751e-60dd-4da4-b4cd-266ee67b8c45}, ! Handle
  0.9.3;                                  ! Version Identifier

OS:SizingPeriod:DesignDay,
  {90d61457-93d7-4d84-a83d-0b39937c3062}, ! Handle
  Minchumina Ann Htg Wind 99% Condns WS=>MCDB, ! Name
  -17,                                    ! Maximum Dry-Bulb Temperature {C}
  0,                                      ! Daily Dry-Bulb Temperature Range {deltaC}
  -17,                                    ! Humidity Indicating Conditions at Maximum Dry-Bulb {BasedOnField A3}
  98792,                                  ! Barometric Pressure {Pa}
  5.8,                                    ! Wind Speed {m/s}
  270,                                    ! Wind Direction {deg}
  0,                                      ! Sky Clearness
  0,                                      ! Rain Indicator
  0,                                      ! Snow Indicator
  21,                                     ! Day of Month
  1,                                      ! Month
  WinterDesignDay,                        ! Day Type
  0,                                      ! Daylight Saving Time Indicator
  Wetbulb,                                ! Humidity Indicating Type
  ,                                       ! Humidity Indicating Day Schedule Name
  DefaultMultipliers,                     ! Dry-Bulb Temperature Range Modifier Type
  ,                                       ! Dry-Bulb Temperature Range Modifier Schedule Name
  ASHRAEClearSky;                         ! Solar Model Indicator

OS:ComponentData,
  {8fc0844e-7b38-4c2d-bec5-af8c27b1c82a}, ! Handle
  Component Data 1,                       ! Name
  {78ece505-5acb-4f09-af30-99927f2a85aa}, ! UUID
  {7d59f8ff-c83b-4440-a74e-8f4fc048da31}, ! Version UUID
  1366305434,                             ! Creation Timestamp
  1366305434,                             ! Version Timestamp
  {90d61457-93d7-4d84-a83d-0b39937c3062}; ! Name of Object 1

