
OS:Version,
  {dfd06b80-9545-4956-a0bb-5d614f0c7dec}, ! Handle
  0.9.3;                                  ! Version Identifier

OS:SizingPeriod:DesignDay,
  {b5e0fc06-b4e0-487e-9c95-fd237cc72fde}, ! Handle
  Middletown Harrisburg Intl Ap Ann Htg 99% Condns DB, ! Name
  -9.5,                                   ! Maximum Dry-Bulb Temperature {C}
  0,                                      ! Daily Dry-Bulb Temperature Range {deltaC}
  -9.5,                                   ! Humidity Indicating Conditions at Maximum Dry-Bulb {BasedOnField A3}
  100225,                                 ! Barometric Pressure {Pa}
  4.3,                                    ! Wind Speed {m/s}
  310,                                    ! Wind Direction {deg}
  0,                                      ! Sky Clearness
  0,                                      ! Rain Indicator
  0,                                      ! Snow Indicator
  21,                                     ! Day of Month
  1,                                      ! Month
  WinterDesignDay,                        ! Day Type
  0,                                      ! Daylight Saving Time Indicator
  Wetbulb,                                ! Humidity Indicating Type
  ,                                       ! Humidity Indicating Day Schedule Name
  DefaultMultipliers,                     ! Dry-Bulb Temperature Range Modifier Type
  ,                                       ! Dry-Bulb Temperature Range Modifier Schedule Name
  ASHRAEClearSky;                         ! Solar Model Indicator

OS:ComponentData,
  {feef119c-717a-4e58-935a-8dc7a7d29354}, ! Handle
  Component Data 1,                       ! Name
  {cec11f90-9af8-455b-9471-0694250b2ec8}, ! UUID
  {748f1e68-966a-46a9-a0c9-8fef147c4811}, ! Version UUID
  1366310196,                             ! Creation Timestamp
  1366310196,                             ! Version Timestamp
  {b5e0fc06-b4e0-487e-9c95-fd237cc72fde}; ! Name of Object 1

