
OS:Version,
  {b0a8e20d-45a0-4b70-8784-e39ac398d033}, ! Handle
  0.9.3;                                  ! Version Identifier

OS:SizingPeriod:DesignDay,
  {1e20230c-ad67-4ce7-98df-35782c81e03c}, ! Handle
  San Jose Intl Ap Ann Clg .4% Condns WB=>MDB, ! Name
  30.6,                                   ! Maximum Dry-Bulb Temperature {C}
  12.1,                                   ! Daily Dry-Bulb Temperature Range {deltaC}
  20.8,                                   ! Humidity Indicating Conditions at Maximum Dry-Bulb {BasedOnField A3}
  101133,                                 ! Barometric Pressure {Pa}
  4.5,                                    ! Wind Speed {m/s}
  320,                                    ! Wind Direction {deg}
  0,                                      ! Sky Clearness
  0,                                      ! Rain Indicator
  0,                                      ! Snow Indicator
  21,                                     ! Day of Month
  7,                                      ! Month
  SummerDesignDay,                        ! Day Type
  0,                                      ! Daylight Saving Time Indicator
  Wetbulb,                                ! Humidity Indicating Type
  ,                                       ! Humidity Indicating Day Schedule Name
  DefaultMultipliers,                     ! Dry-Bulb Temperature Range Modifier Type
  ,                                       ! Dry-Bulb Temperature Range Modifier Schedule Name
  ASHRAETau,                              ! Solar Model Indicator
  ,                                       ! Beam Solar Day Schedule Name
  ,                                       ! Diffuse Solar Day Schedule Name
  0.38,                                   ! ASHRAE Taub {dimensionless}
  2.366;                                  ! ASHRAE Taud {dimensionless}

OS:ComponentData,
  {558c34b2-c020-48bc-be39-f354741415d8}, ! Handle
  Component Data 1,                       ! Name
  {12b140a3-fd30-42b1-afd0-c477154c7089}, ! UUID
  {7007572d-02b0-4bf0-88ee-a992085c2e78}, ! Version UUID
  1366306598,                             ! Creation Timestamp
  1366306598,                             ! Version Timestamp
  {1e20230c-ad67-4ce7-98df-35782c81e03c}; ! Name of Object 1

