
OS:Version,
  {77797b4b-90cb-49cc-9121-f69dc43ea307}, ! Handle
  0.9.3;                                  ! Version Identifier

OS:SizingPeriod:DesignDay,
  {3ebbe496-e90f-4f2e-ac2f-a8848ea0b779}, ! Handle
  Southwest Florida I Ann Clg 2% Condns DB=>MWB, ! Name
  32.9,                                   ! Maximum Dry-Bulb Temperature {C}
  9.1,                                    ! Daily Dry-Bulb Temperature Range {deltaC}
  25,                                     ! Humidity Indicating Conditions at Maximum Dry-Bulb {BasedOnField A3}
  101217,                                 ! Barometric Pressure {Pa}
  3.7,                                    ! Wind Speed {m/s}
  100,                                    ! Wind Direction {deg}
  0,                                      ! Sky Clearness
  0,                                      ! Rain Indicator
  0,                                      ! Snow Indicator
  21,                                     ! Day of Month
  8,                                      ! Month
  SummerDesignDay,                        ! Day Type
  0,                                      ! Daylight Saving Time Indicator
  Wetbulb,                                ! Humidity Indicating Type
  ,                                       ! Humidity Indicating Day Schedule Name
  DefaultMultipliers,                     ! Dry-Bulb Temperature Range Modifier Type
  ,                                       ! Dry-Bulb Temperature Range Modifier Schedule Name
  ASHRAETau,                              ! Solar Model Indicator
  ,                                       ! Beam Solar Day Schedule Name
  ,                                       ! Diffuse Solar Day Schedule Name
  0.491,                                  ! ASHRAE Taub {dimensionless}
  2.021;                                  ! ASHRAE Taud {dimensionless}

OS:ComponentData,
  {cb0d9833-9a35-4a6c-9220-4f2a52b8e972}, ! Handle
  Component Data 1,                       ! Name
  {cd18a590-578a-4b57-a6d9-38856d57605b}, ! UUID
  {91cb505e-080a-47b7-b6b1-32f35bc0d292}, ! Version UUID
  1366306912,                             ! Creation Timestamp
  1366306912,                             ! Version Timestamp
  {3ebbe496-e90f-4f2e-ac2f-a8848ea0b779}; ! Name of Object 1

