
OS:Version,
  {f215ad93-8155-423f-a51c-5b36ecb0c590}, ! Handle
  0.9.3;                                  ! Version Identifier

OS:SizingPeriod:DesignDay,
  {cc98c027-4af2-46e4-a293-4166d4d3dc16}, ! Handle
  TOPEKA Ann Clg 1% Condns DB=>MWB,       ! Name
  34.5,                                   ! Maximum Dry-Bulb Temperature {C}
  11.3,                                   ! Daily Dry-Bulb Temperature Range {deltaC}
  24.3,                                   ! Humidity Indicating Conditions at Maximum Dry-Bulb {BasedOnField A3}
  98123,                                  ! Barometric Pressure {Pa}
  4.9,                                    ! Wind Speed {m/s}
  200,                                    ! Wind Direction {deg}
  0,                                      ! Sky Clearness
  0,                                      ! Rain Indicator
  0,                                      ! Snow Indicator
  21,                                     ! Day of Month
  7,                                      ! Month
  SummerDesignDay,                        ! Day Type
  0,                                      ! Daylight Saving Time Indicator
  Wetbulb,                                ! Humidity Indicating Type
  ,                                       ! Humidity Indicating Day Schedule Name
  DefaultMultipliers,                     ! Dry-Bulb Temperature Range Modifier Type
  ,                                       ! Dry-Bulb Temperature Range Modifier Schedule Name
  ASHRAETau,                              ! Solar Model Indicator
  ,                                       ! Beam Solar Day Schedule Name
  ,                                       ! Diffuse Solar Day Schedule Name
  0.434,                                  ! ASHRAE Taub {dimensionless}
  2.183;                                  ! ASHRAE Taud {dimensionless}

OS:ComponentData,
  {84395aeb-8e57-499e-b5ce-7e68deec4408}, ! Handle
  Component Data 1,                       ! Name
  {01757c6b-d187-409e-ae50-c8e09f334120}, ! UUID
  {fdc8bd37-23c4-46ab-aea9-395da60bb48f}, ! Version UUID
  1366307591,                             ! Creation Timestamp
  1366307591,                             ! Version Timestamp
  {cc98c027-4af2-46e4-a293-4166d4d3dc16}; ! Name of Object 1

