
OS:Version,
  {78d910c9-00ce-4146-b4f0-d44639a41d32}, ! Handle
  0.9.3;                                  ! Version Identifier

OS:SizingPeriod:DesignDay,
  {4c7bae6a-7cb5-4172-8296-bb9b90c5a519}, ! Handle
  Rice Lake Municipal Ann Clg 1% Condns DB=>MWB, ! Name
  29.1,                                   ! Maximum Dry-Bulb Temperature {C}
  11.8,                                   ! Daily Dry-Bulb Temperature Range {deltaC}
  22.2,                                   ! Humidity Indicating Conditions at Maximum Dry-Bulb {BasedOnField A3}
  97225,                                  ! Barometric Pressure {Pa}
  4.8,                                    ! Wind Speed {m/s}
  190,                                    ! Wind Direction {deg}
  0,                                      ! Sky Clearness
  0,                                      ! Rain Indicator
  0,                                      ! Snow Indicator
  21,                                     ! Day of Month
  7,                                      ! Month
  SummerDesignDay,                        ! Day Type
  0,                                      ! Daylight Saving Time Indicator
  Wetbulb,                                ! Humidity Indicating Type
  ,                                       ! Humidity Indicating Day Schedule Name
  DefaultMultipliers,                     ! Dry-Bulb Temperature Range Modifier Type
  ,                                       ! Dry-Bulb Temperature Range Modifier Schedule Name
  ASHRAETau,                              ! Solar Model Indicator
  ,                                       ! Beam Solar Day Schedule Name
  ,                                       ! Diffuse Solar Day Schedule Name
  0.403,                                  ! ASHRAE Taub {dimensionless}
  2.213;                                  ! ASHRAE Taud {dimensionless}

OS:ComponentData,
  {9726386d-6bce-4b04-b314-eaccc42b8635}, ! Handle
  Component Data 1,                       ! Name
  {da89420e-ac91-4c63-a62d-82b0b6c05757}, ! UUID
  {927f9a48-5f0f-48ca-9720-8e11d6ad935e}, ! Version UUID
  1366311581,                             ! Creation Timestamp
  1366311581,                             ! Version Timestamp
  {4c7bae6a-7cb5-4172-8296-bb9b90c5a519}; ! Name of Object 1

