
OS:Version,
  {a1038539-6cb0-46d0-9a7a-2019af5e8832}, ! Handle
  0.9.3;                                  ! Version Identifier

OS:SizingPeriod:DesignDay,
  {43520cd9-3656-4834-8464-74c4b34cb067}, ! Handle
  Oklahoma City Tinker Afb Ann Clg 1% Condns DB=>MWB, ! Name
  35.9,                                   ! Maximum Dry-Bulb Temperature {C}
  11,                                     ! Daily Dry-Bulb Temperature Range {deltaC}
  23.3,                                   ! Humidity Indicating Conditions at Maximum Dry-Bulb {BasedOnField A3}
  96796,                                  ! Barometric Pressure {Pa}
  4.8,                                    ! Wind Speed {m/s}
  180,                                    ! Wind Direction {deg}
  0,                                      ! Sky Clearness
  0,                                      ! Rain Indicator
  0,                                      ! Snow Indicator
  21,                                     ! Day of Month
  7,                                      ! Month
  SummerDesignDay,                        ! Day Type
  0,                                      ! Daylight Saving Time Indicator
  Wetbulb,                                ! Humidity Indicating Type
  ,                                       ! Humidity Indicating Day Schedule Name
  DefaultMultipliers,                     ! Dry-Bulb Temperature Range Modifier Type
  ,                                       ! Dry-Bulb Temperature Range Modifier Schedule Name
  ASHRAETau,                              ! Solar Model Indicator
  ,                                       ! Beam Solar Day Schedule Name
  ,                                       ! Diffuse Solar Day Schedule Name
  0.428,                                  ! ASHRAE Taub {dimensionless}
  2.209;                                  ! ASHRAE Taud {dimensionless}

OS:ComponentData,
  {c4c3ff6c-3f50-4774-baec-2165ff3eb8df}, ! Handle
  Component Data 1,                       ! Name
  {b8e54a4d-123f-49b9-b416-604dc258c6cf}, ! UUID
  {56b32466-a1bf-4e26-8874-686cfb9721ee}, ! Version UUID
  1366309912,                             ! Creation Timestamp
  1366309912,                             ! Version Timestamp
  {43520cd9-3656-4834-8464-74c4b34cb067}; ! Name of Object 1

