
OS:Version,
  {ffd057b4-65a0-447b-91fe-0613e54e5fdf}, ! Handle
  0.9.3;                                  ! Version Identifier

OS:SizingPeriod:DesignDay,
  {14862b0e-d28d-44b0-8505-554902e4c0e9}, ! Handle
  Sandberg Ann Clg .4% Condns DP=>MDB,    ! Name
  22,                                     ! Maximum Dry-Bulb Temperature {C}
  11.4,                                   ! Daily Dry-Bulb Temperature Range {deltaC}
  16,                                     ! Humidity Indicating Conditions at Maximum Dry-Bulb {BasedOnField A3}
  85840,                                  ! Barometric Pressure {Pa}
  5.1,                                    ! Wind Speed {m/s}
  170,                                    ! Wind Direction {deg}
  0,                                      ! Sky Clearness
  0,                                      ! Rain Indicator
  0,                                      ! Snow Indicator
  21,                                     ! Day of Month
  8,                                      ! Month
  SummerDesignDay,                        ! Day Type
  0,                                      ! Daylight Saving Time Indicator
  Dewpoint,                               ! Humidity Indicating Type
  ,                                       ! Humidity Indicating Day Schedule Name
  DefaultMultipliers,                     ! Dry-Bulb Temperature Range Modifier Type
  ,                                       ! Dry-Bulb Temperature Range Modifier Schedule Name
  ASHRAETau,                              ! Solar Model Indicator
  ,                                       ! Beam Solar Day Schedule Name
  ,                                       ! Diffuse Solar Day Schedule Name
  0.351,                                  ! ASHRAE Taub {dimensionless}
  2.367;                                  ! ASHRAE Taud {dimensionless}

OS:ComponentData,
  {49f22bf4-7dbc-43c5-bb9a-832cff4382fe}, ! Handle
  Component Data 1,                       ! Name
  {16b07c58-c4e9-49df-86a6-3880237069d5}, ! UUID
  {c3e84b04-b2ce-49ff-8a97-784690fdc85e}, ! Version UUID
  1366306604,                             ! Creation Timestamp
  1366306604,                             ! Version Timestamp
  {14862b0e-d28d-44b0-8505-554902e4c0e9}; ! Name of Object 1

