
OS:Version,
  {44d94c87-fd87-4a93-8aa0-12664f559295}, ! Handle
  0.9.3;                                  ! Version Identifier

OS:SizingPeriod:DesignDay,
  {c3f20570-3ab2-4819-993d-80b3c422bab8}, ! Handle
  Talkeetna State Arpt Ann Clg 2% Condns DB=>MWB, ! Name
  21.3,                                   ! Maximum Dry-Bulb Temperature {C}
  8.8,                                    ! Daily Dry-Bulb Temperature Range {deltaC}
  13.9,                                   ! Humidity Indicating Conditions at Maximum Dry-Bulb {BasedOnField A3}
  100070,                                 ! Barometric Pressure {Pa}
  2.9,                                    ! Wind Speed {m/s}
  180,                                    ! Wind Direction {deg}
  0,                                      ! Sky Clearness
  0,                                      ! Rain Indicator
  0,                                      ! Snow Indicator
  21,                                     ! Day of Month
  7,                                      ! Month
  SummerDesignDay,                        ! Day Type
  0,                                      ! Daylight Saving Time Indicator
  Wetbulb,                                ! Humidity Indicating Type
  ,                                       ! Humidity Indicating Day Schedule Name
  DefaultMultipliers,                     ! Dry-Bulb Temperature Range Modifier Type
  ,                                       ! Dry-Bulb Temperature Range Modifier Schedule Name
  ASHRAETau,                              ! Solar Model Indicator
  ,                                       ! Beam Solar Day Schedule Name
  ,                                       ! Diffuse Solar Day Schedule Name
  0.379,                                  ! ASHRAE Taub {dimensionless}
  2.177;                                  ! ASHRAE Taud {dimensionless}

OS:ComponentData,
  {a7e9dfb5-fbcc-40b0-b167-2daa3d6eab2b}, ! Handle
  Component Data 1,                       ! Name
  {0e1b76c5-c1ae-4f97-aba4-a90cfe900823}, ! UUID
  {85ef51e1-646d-4c0c-aaa2-5a0d4373c066}, ! Version UUID
  1366305587,                             ! Creation Timestamp
  1366305587,                             ! Version Timestamp
  {c3f20570-3ab2-4819-993d-80b3c422bab8}; ! Name of Object 1

