
OS:Version,
  {d1260292-f00d-4c46-bdc8-b043d7ba3d7d}, ! Handle
  0.9.3;                                  ! Version Identifier

OS:SizingPeriod:DesignDay,
  {92268dc3-a661-4f26-b51b-5970ee9dd631}, ! Handle
  Republic Ann Clg 2% Condns DP=>MDB,     ! Name
  25.5,                                   ! Maximum Dry-Bulb Temperature {C}
  8,                                      ! Daily Dry-Bulb Temperature Range {deltaC}
  22.6,                                   ! Humidity Indicating Conditions at Maximum Dry-Bulb {BasedOnField A3}
  101013,                                 ! Barometric Pressure {Pa}
  5.5,                                    ! Wind Speed {m/s}
  210,                                    ! Wind Direction {deg}
  0,                                      ! Sky Clearness
  0,                                      ! Rain Indicator
  0,                                      ! Snow Indicator
  21,                                     ! Day of Month
  7,                                      ! Month
  SummerDesignDay,                        ! Day Type
  0,                                      ! Daylight Saving Time Indicator
  Dewpoint,                               ! Humidity Indicating Type
  ,                                       ! Humidity Indicating Day Schedule Name
  DefaultMultipliers,                     ! Dry-Bulb Temperature Range Modifier Type
  ,                                       ! Dry-Bulb Temperature Range Modifier Schedule Name
  ASHRAETau,                              ! Solar Model Indicator
  ,                                       ! Beam Solar Day Schedule Name
  ,                                       ! Diffuse Solar Day Schedule Name
  0.541,                                  ! ASHRAE Taub {dimensionless}
  1.799;                                  ! ASHRAE Taud {dimensionless}

OS:ComponentData,
  {35c53aa6-811e-432c-9a22-be48e3a4dffe}, ! Handle
  Component Data 1,                       ! Name
  {11905b7f-f5f7-4d96-a69a-37bfdd0e91d3}, ! UUID
  {c117c898-6250-404a-96ba-77241e7e0f60}, ! Version UUID
  1366309710,                             ! Creation Timestamp
  1366309710,                             ! Version Timestamp
  {92268dc3-a661-4f26-b51b-5970ee9dd631}; ! Name of Object 1

