
OS:Version,
  {1012f92a-2b1e-43b4-81ad-a618bd9fba4d}, ! Handle
  0.9.3;                                  ! Version Identifier

OS:SizingPeriod:DesignDay,
  {25c62354-f3b6-4430-afca-61b5a9b4d753}, ! Handle
  Ponca City Municipal Ap  Sgp Ann Hum_n 99.6% Condns DP=>MCDB, ! Name
  -10.1,                                  ! Maximum Dry-Bulb Temperature {C}
  0,                                      ! Daily Dry-Bulb Temperature Range {deltaC}
  -18.6,                                  ! Humidity Indicating Conditions at Maximum Dry-Bulb {BasedOnField A3}
  97563,                                  ! Barometric Pressure {Pa}
  3.7,                                    ! Wind Speed {m/s}
  350,                                    ! Wind Direction {deg}
  0,                                      ! Sky Clearness
  0,                                      ! Rain Indicator
  0,                                      ! Snow Indicator
  21,                                     ! Day of Month
  1,                                      ! Month
  WinterDesignDay,                        ! Day Type
  0,                                      ! Daylight Saving Time Indicator
  Dewpoint,                               ! Humidity Indicating Type
  ,                                       ! Humidity Indicating Day Schedule Name
  DefaultMultipliers,                     ! Dry-Bulb Temperature Range Modifier Type
  ,                                       ! Dry-Bulb Temperature Range Modifier Schedule Name
  ASHRAEClearSky;                         ! Solar Model Indicator

OS:ComponentData,
  {08c257df-7a0a-4388-bc17-b4ae84e8d702}, ! Handle
  Component Data 1,                       ! Name
  {1282a35e-c3dc-45d9-9354-c5c79c373c19}, ! UUID
  {58e8f6b0-6411-40e1-a4eb-dabd4dffa0ab}, ! Version UUID
  1366309935,                             ! Creation Timestamp
  1366309935,                             ! Version Timestamp
  {25c62354-f3b6-4430-afca-61b5a9b4d753}; ! Name of Object 1

