
OS:Version,
  {449d4e6b-e833-483c-928d-1a4f592c0107}, ! Handle
  0.9.3;                                  ! Version Identifier

OS:SizingPeriod:DesignDay,
  {c309da99-8486-4ceb-9b53-cac25e29315b}, ! Handle
  White Plains Westchester Co A Ann Clg .4% Condns WB=>MDB, ! Name
  29.7,                                   ! Maximum Dry-Bulb Temperature {C}
  9.6,                                    ! Daily Dry-Bulb Temperature Range {deltaC}
  24.8,                                   ! Humidity Indicating Conditions at Maximum Dry-Bulb {BasedOnField A3}
  99868,                                  ! Barometric Pressure {Pa}
  3.8,                                    ! Wind Speed {m/s}
  270,                                    ! Wind Direction {deg}
  0,                                      ! Sky Clearness
  0,                                      ! Rain Indicator
  0,                                      ! Snow Indicator
  21,                                     ! Day of Month
  7,                                      ! Month
  SummerDesignDay,                        ! Day Type
  0,                                      ! Daylight Saving Time Indicator
  Wetbulb,                                ! Humidity Indicating Type
  ,                                       ! Humidity Indicating Day Schedule Name
  DefaultMultipliers,                     ! Dry-Bulb Temperature Range Modifier Type
  ,                                       ! Dry-Bulb Temperature Range Modifier Schedule Name
  ASHRAETau,                              ! Solar Model Indicator
  ,                                       ! Beam Solar Day Schedule Name
  ,                                       ! Diffuse Solar Day Schedule Name
  0.506,                                  ! ASHRAE Taub {dimensionless}
  1.88;                                   ! ASHRAE Taud {dimensionless}

OS:ComponentData,
  {75cc75ae-c84c-4a58-89cb-dccc07296ec3}, ! Handle
  Component Data 1,                       ! Name
  {9a7bd734-5851-4445-b1ed-071ea24994b7}, ! UUID
  {38952254-ed49-4b00-8a68-b03e07cbf739}, ! Version UUID
  1366309756,                             ! Creation Timestamp
  1366309756,                             ! Version Timestamp
  {c309da99-8486-4ceb-9b53-cac25e29315b}; ! Name of Object 1

