
OS:Version,
  {743f1b54-77b4-418c-a496-1d3fcb12991d}, ! Handle
  0.9.3;                                  ! Version Identifier

OS:SizingPeriod:DesignDay,
  {63f19d7a-c2b3-47d0-89d4-9427bf62b683}, ! Handle
  Montpelier Ap Ann Clg 2% Condns DB=>MWB, ! Name
  26.6,                                   ! Maximum Dry-Bulb Temperature {C}
  11.3,                                   ! Daily Dry-Bulb Temperature Range {deltaC}
  19.4,                                   ! Humidity Indicating Conditions at Maximum Dry-Bulb {BasedOnField A3}
  97272,                                  ! Barometric Pressure {Pa}
  3.8,                                    ! Wind Speed {m/s}
  220,                                    ! Wind Direction {deg}
  0,                                      ! Sky Clearness
  0,                                      ! Rain Indicator
  0,                                      ! Snow Indicator
  21,                                     ! Day of Month
  7,                                      ! Month
  SummerDesignDay,                        ! Day Type
  0,                                      ! Daylight Saving Time Indicator
  Wetbulb,                                ! Humidity Indicating Type
  ,                                       ! Humidity Indicating Day Schedule Name
  DefaultMultipliers,                     ! Dry-Bulb Temperature Range Modifier Type
  ,                                       ! Dry-Bulb Temperature Range Modifier Schedule Name
  ASHRAETau,                              ! Solar Model Indicator
  ,                                       ! Beam Solar Day Schedule Name
  ,                                       ! Diffuse Solar Day Schedule Name
  0.435,                                  ! ASHRAE Taub {dimensionless}
  2.069;                                  ! ASHRAE Taud {dimensionless}

OS:ComponentData,
  {9be55938-5cc2-4c2b-9e45-225253558c25}, ! Handle
  Component Data 1,                       ! Name
  {85046ab2-5c73-4d1a-82be-7a13220b188c}, ! UUID
  {5e10465c-2e3b-4ae9-9ec4-b7883dba6532}, ! Version UUID
  1366311251,                             ! Creation Timestamp
  1366311251,                             ! Version Timestamp
  {63f19d7a-c2b3-47d0-89d4-9427bf62b683}; ! Name of Object 1

