
OS:Version,
  {0068a38b-1677-4bdb-94ff-326ea62699e7}, ! Handle
  0.9.3;                                  ! Version Identifier

OS:SizingPeriod:DesignDay,
  {4f3e5e97-1f79-4cae-97ba-9f6913a103e6}, ! Handle
  WILMINGTON Ann Clg 1% Condns Enth=>MDB, ! Name
  29.4,                                   ! Maximum Dry-Bulb Temperature {C}
  9.5,                                    ! Daily Dry-Bulb Temperature Range {deltaC}
  75400,                                  ! Humidity Indicating Conditions at Maximum Dry-Bulb {BasedOnField A3}
  101037,                                 ! Barometric Pressure {Pa}
  4.6,                                    ! Wind Speed {m/s}
  240,                                    ! Wind Direction {deg}
  0,                                      ! Sky Clearness
  0,                                      ! Rain Indicator
  0,                                      ! Snow Indicator
  21,                                     ! Day of Month
  7,                                      ! Month
  SummerDesignDay,                        ! Day Type
  0,                                      ! Daylight Saving Time Indicator
  Enthalpy,                               ! Humidity Indicating Type
  ,                                       ! Humidity Indicating Day Schedule Name
  DefaultMultipliers,                     ! Dry-Bulb Temperature Range Modifier Type
  ,                                       ! Dry-Bulb Temperature Range Modifier Schedule Name
  ASHRAETau,                              ! Solar Model Indicator
  ,                                       ! Beam Solar Day Schedule Name
  ,                                       ! Diffuse Solar Day Schedule Name
  0.557,                                  ! ASHRAE Taub {dimensionless}
  1.755;                                  ! ASHRAE Taud {dimensionless}

OS:ComponentData,
  {1f4aa603-90fe-435f-9d28-e052bdfb21da}, ! Handle
  Component Data 1,                       ! Name
  {84773bed-e3f9-4ab9-9268-00a27b48e992}, ! UUID
  {c81d59c0-6956-4b86-8cf1-c190c4370114}, ! Version UUID
  1366306779,                             ! Creation Timestamp
  1366306779,                             ! Version Timestamp
  {4f3e5e97-1f79-4cae-97ba-9f6913a103e6}; ! Name of Object 1

