
OS:Version,
  {320acf99-1945-4608-ab8a-e21f8f6b99f0}, ! Handle
  0.9.3;                                  ! Version Identifier

OS:SizingPeriod:DesignDay,
  {dece97d0-842f-4f73-b865-6fcecea4467f}, ! Handle
  Salisbury Wicomico Co Ap Ann Htg Wind 99% Condns WS=>MCDB, ! Name
  2.6,                                    ! Maximum Dry-Bulb Temperature {C}
  0,                                      ! Daily Dry-Bulb Temperature Range {deltaC}
  2.6,                                    ! Humidity Indicating Conditions at Maximum Dry-Bulb {BasedOnField A3}
  101145,                                 ! Barometric Pressure {Pa}
  10.6,                                   ! Wind Speed {m/s}
  330,                                    ! Wind Direction {deg}
  0,                                      ! Sky Clearness
  0,                                      ! Rain Indicator
  0,                                      ! Snow Indicator
  21,                                     ! Day of Month
  1,                                      ! Month
  WinterDesignDay,                        ! Day Type
  0,                                      ! Daylight Saving Time Indicator
  Wetbulb,                                ! Humidity Indicating Type
  ,                                       ! Humidity Indicating Day Schedule Name
  DefaultMultipliers,                     ! Dry-Bulb Temperature Range Modifier Type
  ,                                       ! Dry-Bulb Temperature Range Modifier Schedule Name
  ASHRAEClearSky;                         ! Solar Model Indicator

OS:ComponentData,
  {37a86cde-5f10-4887-8f4c-0428d1306c09}, ! Handle
  Component Data 1,                       ! Name
  {86d4fdfa-ceb2-405d-a5b1-be2fb54f5c05}, ! UUID
  {52390f38-8ca3-48d1-ae3e-349878fe1878}, ! Version UUID
  1366307861,                             ! Creation Timestamp
  1366307861,                             ! Version Timestamp
  {dece97d0-842f-4f73-b865-6fcecea4467f}; ! Name of Object 1

