
OS:Version,
  {30175dd4-7555-4da7-9c6b-2cf0ffb68b15}, ! Handle
  0.9.3;                                  ! Version Identifier

OS:SizingPeriod:DesignDay,
  {54320f73-e135-4ae1-ac5d-adc848300af2}, ! Handle
  Williamsport Regional Ap Ann Clg 2% Condns DB=>MWB, ! Name
  29.3,                                   ! Maximum Dry-Bulb Temperature {C}
  11.6,                                   ! Daily Dry-Bulb Temperature Range {deltaC}
  21.2,                                   ! Humidity Indicating Conditions at Maximum Dry-Bulb {BasedOnField A3}
  99441,                                  ! Barometric Pressure {Pa}
  4.2,                                    ! Wind Speed {m/s}
  260,                                    ! Wind Direction {deg}
  0,                                      ! Sky Clearness
  0,                                      ! Rain Indicator
  0,                                      ! Snow Indicator
  21,                                     ! Day of Month
  7,                                      ! Month
  SummerDesignDay,                        ! Day Type
  0,                                      ! Daylight Saving Time Indicator
  Wetbulb,                                ! Humidity Indicating Type
  ,                                       ! Humidity Indicating Day Schedule Name
  DefaultMultipliers,                     ! Dry-Bulb Temperature Range Modifier Type
  ,                                       ! Dry-Bulb Temperature Range Modifier Schedule Name
  ASHRAETau,                              ! Solar Model Indicator
  ,                                       ! Beam Solar Day Schedule Name
  ,                                       ! Diffuse Solar Day Schedule Name
  0.499,                                  ! ASHRAE Taub {dimensionless}
  1.884;                                  ! ASHRAE Taud {dimensionless}

OS:ComponentData,
  {68b7b45e-2bb1-4007-a22e-4d364f5f6276}, ! Handle
  Component Data 1,                       ! Name
  {84f13fb4-6b42-4002-8b5b-e3d9f9165fa3}, ! UUID
  {88b86e72-b7d0-47e6-bf25-6951467b7c45}, ! Version UUID
  1366310280,                             ! Creation Timestamp
  1366310280,                             ! Version Timestamp
  {54320f73-e135-4ae1-ac5d-adc848300af2}; ! Name of Object 1

