
OS:Version,
  {a153fa67-12cd-43aa-92d2-f0f45a30a3df}, ! Handle
  0.9.3;                                  ! Version Identifier

OS:SizingPeriod:DesignDay,
  {aee3d71b-3dd7-476d-a525-a8b2ff7850d1}, ! Handle
  Nenana Municipal Ap Ann Clg 1% Condns DB=>MWB, ! Name
  24.8,                                   ! Maximum Dry-Bulb Temperature {C}
  11.3,                                   ! Daily Dry-Bulb Temperature Range {deltaC}
  15.2,                                   ! Humidity Indicating Conditions at Maximum Dry-Bulb {BasedOnField A3}
  100022,                                 ! Barometric Pressure {Pa}
  2.6,                                    ! Wind Speed {m/s}
  60,                                     ! Wind Direction {deg}
  0,                                      ! Sky Clearness
  0,                                      ! Rain Indicator
  0,                                      ! Snow Indicator
  21,                                     ! Day of Month
  7,                                      ! Month
  SummerDesignDay,                        ! Day Type
  0,                                      ! Daylight Saving Time Indicator
  Wetbulb,                                ! Humidity Indicating Type
  ,                                       ! Humidity Indicating Day Schedule Name
  DefaultMultipliers,                     ! Dry-Bulb Temperature Range Modifier Type
  ,                                       ! Dry-Bulb Temperature Range Modifier Schedule Name
  ASHRAETau,                              ! Solar Model Indicator
  ,                                       ! Beam Solar Day Schedule Name
  ,                                       ! Diffuse Solar Day Schedule Name
  0.38,                                   ! ASHRAE Taub {dimensionless}
  2.23;                                   ! ASHRAE Taud {dimensionless}

OS:ComponentData,
  {a7e07535-9d3e-47d6-81b2-7ebc137b4c69}, ! Handle
  Component Data 1,                       ! Name
  {fa6e74c5-8e14-4bf4-8103-ae47b5bcb301}, ! UUID
  {48f68aa4-15db-4496-a08b-1616a7005cfb}, ! Version UUID
  1366305440,                             ! Creation Timestamp
  1366305440,                             ! Version Timestamp
  {aee3d71b-3dd7-476d-a525-a8b2ff7850d1}; ! Name of Object 1

