
OS:Version,
  {2adb003a-746d-47ee-b66c-c819c819cbb8}, ! Handle
  0.9.3;                                  ! Version Identifier

OS:SizingPeriod:DesignDay,
  {83e47fee-a585-4a34-9f27-b056273b653a}, ! Handle
  Traverse City Cherry Capital Ann Clg .4% Condns DP=>MDB, ! Name
  26.8,                                   ! Maximum Dry-Bulb Temperature {C}
  11.8,                                   ! Daily Dry-Bulb Temperature Range {deltaC}
  22.2,                                   ! Humidity Indicating Conditions at Maximum Dry-Bulb {BasedOnField A3}
  99087,                                  ! Barometric Pressure {Pa}
  5.1,                                    ! Wind Speed {m/s}
  230,                                    ! Wind Direction {deg}
  0,                                      ! Sky Clearness
  0,                                      ! Rain Indicator
  0,                                      ! Snow Indicator
  21,                                     ! Day of Month
  7,                                      ! Month
  SummerDesignDay,                        ! Day Type
  0,                                      ! Daylight Saving Time Indicator
  Dewpoint,                               ! Humidity Indicating Type
  ,                                       ! Humidity Indicating Day Schedule Name
  DefaultMultipliers,                     ! Dry-Bulb Temperature Range Modifier Type
  ,                                       ! Dry-Bulb Temperature Range Modifier Schedule Name
  ASHRAETau,                              ! Solar Model Indicator
  ,                                       ! Beam Solar Day Schedule Name
  ,                                       ! Diffuse Solar Day Schedule Name
  0.422,                                  ! ASHRAE Taub {dimensionless}
  2.177;                                  ! ASHRAE Taud {dimensionless}

OS:ComponentData,
  {299d5ab5-86f8-44f9-b011-523a6a652b86}, ! Handle
  Component Data 1,                       ! Name
  {e4319658-1868-4e4f-a5a4-f8ac53b00513}, ! UUID
  {b72fec0a-014a-4b81-8cca-ed4f14c4678c}, ! Version UUID
  1366308125,                             ! Creation Timestamp
  1366308125,                             ! Version Timestamp
  {83e47fee-a585-4a34-9f27-b056273b653a}; ! Name of Object 1

