
OS:Version,
  {1d86601d-b9b2-4938-b8ce-8fe4b8d0d91a}, ! Handle
  0.9.3;                                  ! Version Identifier

OS:SizingPeriod:DesignDay,
  {b70e1fac-eec1-4f39-882d-53a79b1d1786}, ! Handle
  SAN_DIEGO Ann Hum_n 99.6% Condns DP=>MCDB, ! Name
  14.5,                                   ! Maximum Dry-Bulb Temperature {C}
  0,                                      ! Daily Dry-Bulb Temperature Range {deltaC}
  -7.6,                                   ! Humidity Indicating Conditions at Maximum Dry-Bulb {BasedOnField A3}
  101217,                                 ! Barometric Pressure {Pa}
  1.3,                                    ! Wind Speed {m/s}
  340,                                    ! Wind Direction {deg}
  0,                                      ! Sky Clearness
  0,                                      ! Rain Indicator
  0,                                      ! Snow Indicator
  21,                                     ! Day of Month
  12,                                     ! Month
  WinterDesignDay,                        ! Day Type
  0,                                      ! Daylight Saving Time Indicator
  Dewpoint,                               ! Humidity Indicating Type
  ,                                       ! Humidity Indicating Day Schedule Name
  DefaultMultipliers,                     ! Dry-Bulb Temperature Range Modifier Type
  ,                                       ! Dry-Bulb Temperature Range Modifier Schedule Name
  ASHRAEClearSky;                         ! Solar Model Indicator

OS:ComponentData,
  {98cc6fc8-8112-453b-92db-9a64d2ad58c1}, ! Handle
  Component Data 1,                       ! Name
  {8671f28c-0bc2-419b-b351-8c1ad967cb2e}, ! UUID
  {e50f9dc6-0c25-4d47-8bff-cd90888bdc21}, ! Version UUID
  1366306585,                             ! Creation Timestamp
  1366306585,                             ! Version Timestamp
  {b70e1fac-eec1-4f39-882d-53a79b1d1786}; ! Name of Object 1

