
OS:Version,
  {52eb540f-7d87-473f-8dd1-85031a272bdd}, ! Handle
  0.9.3;                                  ! Version Identifier

OS:SizingPeriod:DesignDay,
  {6fcc1f44-4955-4f51-9ebd-cb30dcb88f08}, ! Handle
  Rochester International Arpt Ann Clg 1% Condns WB=>MDB, ! Name
  27.7,                                   ! Maximum Dry-Bulb Temperature {C}
  10.6,                                   ! Daily Dry-Bulb Temperature Range {deltaC}
  23.7,                                   ! Humidity Indicating Conditions at Maximum Dry-Bulb {BasedOnField A3}
  96634,                                  ! Barometric Pressure {Pa}
  6.7,                                    ! Wind Speed {m/s}
  200,                                    ! Wind Direction {deg}
  0,                                      ! Sky Clearness
  0,                                      ! Rain Indicator
  0,                                      ! Snow Indicator
  21,                                     ! Day of Month
  7,                                      ! Month
  SummerDesignDay,                        ! Day Type
  0,                                      ! Daylight Saving Time Indicator
  Wetbulb,                                ! Humidity Indicating Type
  ,                                       ! Humidity Indicating Day Schedule Name
  DefaultMultipliers,                     ! Dry-Bulb Temperature Range Modifier Type
  ,                                       ! Dry-Bulb Temperature Range Modifier Schedule Name
  ASHRAETau,                              ! Solar Model Indicator
  ,                                       ! Beam Solar Day Schedule Name
  ,                                       ! Diffuse Solar Day Schedule Name
  0.404,                                  ! ASHRAE Taub {dimensionless}
  2.226;                                  ! ASHRAE Taud {dimensionless}

OS:ComponentData,
  {39b82f3e-7733-4b75-bb39-6fa556e86868}, ! Handle
  Component Data 1,                       ! Name
  {7dd7803d-2714-4778-8f9a-2aef5b628611}, ! UUID
  {8e72f0b6-395f-4578-b7d3-e934f3c9d0da}, ! Version UUID
  1366308399,                             ! Creation Timestamp
  1366308399,                             ! Version Timestamp
  {6fcc1f44-4955-4f51-9ebd-cb30dcb88f08}; ! Name of Object 1

