
OS:Version,
  {e7301aab-d91c-4f99-94f1-8614901c5e09}, ! Handle
  0.9.3;                                  ! Version Identifier

OS:SizingPeriod:DesignDay,
  {50c74165-bbf6-4af4-a254-5e25c7f7c678}, ! Handle
  Saint George  Awos Ann Clg .4% Condns DP=>MDB, ! Name
  24.5,                                   ! Maximum Dry-Bulb Temperature {C}
  14.3,                                   ! Daily Dry-Bulb Temperature Range {deltaC}
  17.1,                                   ! Humidity Indicating Conditions at Maximum Dry-Bulb {BasedOnField A3}
  91014,                                  ! Barometric Pressure {Pa}
  6.6,                                    ! Wind Speed {m/s}
  250,                                    ! Wind Direction {deg}
  0,                                      ! Sky Clearness
  0,                                      ! Rain Indicator
  0,                                      ! Snow Indicator
  21,                                     ! Day of Month
  7,                                      ! Month
  SummerDesignDay,                        ! Day Type
  0,                                      ! Daylight Saving Time Indicator
  Dewpoint,                               ! Humidity Indicating Type
  ,                                       ! Humidity Indicating Day Schedule Name
  DefaultMultipliers,                     ! Dry-Bulb Temperature Range Modifier Type
  ,                                       ! Dry-Bulb Temperature Range Modifier Schedule Name
  ASHRAETau,                              ! Solar Model Indicator
  ,                                       ! Beam Solar Day Schedule Name
  ,                                       ! Diffuse Solar Day Schedule Name
  0.485,                                  ! ASHRAE Taub {dimensionless}
  1.844;                                  ! ASHRAE Taud {dimensionless}

OS:ComponentData,
  {d2c30cbd-bfc6-4f04-b57b-12e37bc2a4db}, ! Handle
  Component Data 1,                       ! Name
  {68458099-55a8-4520-aa4f-35f6186842f1}, ! UUID
  {5e57ccfe-52eb-4a91-9ecc-a99e9297eb5e}, ! Version UUID
  1366310984,                             ! Creation Timestamp
  1366310984,                             ! Version Timestamp
  {50c74165-bbf6-4af4-a254-5e25c7f7c678}; ! Name of Object 1

