
OS:Version,
  {a2b89b8b-cf20-45c3-837c-1a0f5f4cdd29}, ! Handle
  0.9.3;                                  ! Version Identifier

OS:SizingPeriod:DesignDay,
  {551e66c5-f76f-4287-b9b2-d9638638e5dc}, ! Handle
  Traverse City Cherry Capital Ann Hum_n 99.6% Condns DP=>MCDB, ! Name
  -17.1,                                  ! Maximum Dry-Bulb Temperature {C}
  0,                                      ! Daily Dry-Bulb Temperature Range {deltaC}
  -21.9,                                  ! Humidity Indicating Conditions at Maximum Dry-Bulb {BasedOnField A3}
  99087,                                  ! Barometric Pressure {Pa}
  2.5,                                    ! Wind Speed {m/s}
  190,                                    ! Wind Direction {deg}
  0,                                      ! Sky Clearness
  0,                                      ! Rain Indicator
  0,                                      ! Snow Indicator
  21,                                     ! Day of Month
  1,                                      ! Month
  WinterDesignDay,                        ! Day Type
  0,                                      ! Daylight Saving Time Indicator
  Dewpoint,                               ! Humidity Indicating Type
  ,                                       ! Humidity Indicating Day Schedule Name
  DefaultMultipliers,                     ! Dry-Bulb Temperature Range Modifier Type
  ,                                       ! Dry-Bulb Temperature Range Modifier Schedule Name
  ASHRAEClearSky;                         ! Solar Model Indicator

OS:ComponentData,
  {7f4b8a1d-f4b2-4aa1-beff-a560bf58a397}, ! Handle
  Component Data 1,                       ! Name
  {7bee1a00-cc23-4210-b273-c1a2b953d685}, ! UUID
  {93a93904-76ad-405e-9401-9eb2155e744f}, ! Version UUID
  1366308124,                             ! Creation Timestamp
  1366308124,                             ! Version Timestamp
  {551e66c5-f76f-4287-b9b2-d9638638e5dc}; ! Name of Object 1

