
OS:Version,
  {2aa082de-6a12-4184-ac3c-707a89f4d83f}, ! Handle
  0.9.3;                                  ! Version Identifier

OS:SizingPeriod:DesignDay,
  {3db455b9-e9f1-43de-8be4-cbb975eadc76}, ! Handle
  Oakland Ann Hum_n 99% Condns DP=>MCDB,  ! Name
  10.7,                                   ! Maximum Dry-Bulb Temperature {C}
  0,                                      ! Daily Dry-Bulb Temperature Range {deltaC}
  -2.5,                                   ! Humidity Indicating Conditions at Maximum Dry-Bulb {BasedOnField A3}
  101313,                                 ! Barometric Pressure {Pa}
  2.2,                                    ! Wind Speed {m/s}
  50,                                     ! Wind Direction {deg}
  0,                                      ! Sky Clearness
  0,                                      ! Rain Indicator
  0,                                      ! Snow Indicator
  21,                                     ! Day of Month
  1,                                      ! Month
  WinterDesignDay,                        ! Day Type
  0,                                      ! Daylight Saving Time Indicator
  Dewpoint,                               ! Humidity Indicating Type
  ,                                       ! Humidity Indicating Day Schedule Name
  DefaultMultipliers,                     ! Dry-Bulb Temperature Range Modifier Type
  ,                                       ! Dry-Bulb Temperature Range Modifier Schedule Name
  ASHRAEClearSky;                         ! Solar Model Indicator

OS:ComponentData,
  {7d8d34db-ac10-4e41-81ac-f853592974c8}, ! Handle
  Component Data 1,                       ! Name
  {d31c2719-8261-43dc-a5c7-83222d3e71e9}, ! UUID
  {6c97607e-061c-4f5c-aa50-4177c3d4e7b1}, ! Version UUID
  1366306521,                             ! Creation Timestamp
  1366306521,                             ! Version Timestamp
  {3db455b9-e9f1-43de-8be4-cbb975eadc76}; ! Name of Object 1

