
OS:Version,
  {9f0692dd-429b-4c2a-8fd3-2e817406ad18}, ! Handle
  0.9.3;                                  ! Version Identifier

OS:SizingPeriod:DesignDay,
  {9edb9713-c178-407b-b1c6-ba05d2f5786f}, ! Handle
  Mekoryuk Ann Clg .4% Condns DB=>MWB,    ! Name
  16.1,                                   ! Maximum Dry-Bulb Temperature {C}
  4.6,                                    ! Daily Dry-Bulb Temperature Range {deltaC}
  12.7,                                   ! Humidity Indicating Conditions at Maximum Dry-Bulb {BasedOnField A3}
  101145,                                 ! Barometric Pressure {Pa}
  5.8,                                    ! Wind Speed {m/s}
  180,                                    ! Wind Direction {deg}
  0,                                      ! Sky Clearness
  0,                                      ! Rain Indicator
  0,                                      ! Snow Indicator
  21,                                     ! Day of Month
  8,                                      ! Month
  SummerDesignDay,                        ! Day Type
  0,                                      ! Daylight Saving Time Indicator
  Wetbulb,                                ! Humidity Indicating Type
  ,                                       ! Humidity Indicating Day Schedule Name
  DefaultMultipliers,                     ! Dry-Bulb Temperature Range Modifier Type
  ,                                       ! Dry-Bulb Temperature Range Modifier Schedule Name
  ASHRAETau,                              ! Solar Model Indicator
  ,                                       ! Beam Solar Day Schedule Name
  ,                                       ! Diffuse Solar Day Schedule Name
  0.386,                                  ! ASHRAE Taub {dimensionless}
  2.213;                                  ! ASHRAE Taud {dimensionless}

OS:ComponentData,
  {bc077300-d7c8-487e-99f0-0328386827a5}, ! Handle
  Component Data 1,                       ! Name
  {a89f865c-32d8-41e1-906b-698c08ae4c34}, ! UUID
  {6d8d22dd-718e-4f55-bbbe-01bfcf70d998}, ! Version UUID
  1366305424,                             ! Creation Timestamp
  1366305424,                             ! Version Timestamp
  {9edb9713-c178-407b-b1c6-ba05d2f5786f}; ! Name of Object 1

