
OS:Version,
  {080e9bc5-2de9-44f0-8db0-ec91d0b29457}, ! Handle
  0.9.3;                                  ! Version Identifier

OS:SizingPeriod:DesignDay,
  {12bd5f69-3228-463d-b45c-b199c5e9d0f1}, ! Handle
  MINNEAPOLIS Ann Htg Wind 99.6% Condns WS=>MCDB, ! Name
  -8.7,                                   ! Maximum Dry-Bulb Temperature {C}
  0,                                      ! Daily Dry-Bulb Temperature Range {deltaC}
  -8.7,                                   ! Humidity Indicating Conditions at Maximum Dry-Bulb {BasedOnField A3}
  98299,                                  ! Barometric Pressure {Pa}
  12.3,                                   ! Wind Speed {m/s}
  300,                                    ! Wind Direction {deg}
  0,                                      ! Sky Clearness
  0,                                      ! Rain Indicator
  0,                                      ! Snow Indicator
  21,                                     ! Day of Month
  1,                                      ! Month
  WinterDesignDay,                        ! Day Type
  0,                                      ! Daylight Saving Time Indicator
  Wetbulb,                                ! Humidity Indicating Type
  ,                                       ! Humidity Indicating Day Schedule Name
  DefaultMultipliers,                     ! Dry-Bulb Temperature Range Modifier Type
  ,                                       ! Dry-Bulb Temperature Range Modifier Schedule Name
  ASHRAEClearSky;                         ! Solar Model Indicator

OS:ComponentData,
  {0337e935-43b4-4043-8dd6-c57a28668237}, ! Handle
  Component Data 1,                       ! Name
  {ac9eab3c-2b20-48b2-851b-8e18346b2735}, ! UUID
  {011fcd6c-795b-49d9-912f-1b4db741b343}, ! Version UUID
  1366308310,                             ! Creation Timestamp
  1366308310,                             ! Version Timestamp
  {12bd5f69-3228-463d-b45c-b199c5e9d0f1}; ! Name of Object 1

