
OS:Version,
  {a94c11d5-cad6-47fc-a121-bc1a5dcbb8cb}, ! Handle
  0.9.3;                                  ! Version Identifier

OS:SizingPeriod:DesignDay,
  {8201b8fd-5403-4414-b7a4-599cc4563de8}, ! Handle
  Tulsa International Airport Ann Htg Wind 99% Condns WS=>MCDB, ! Name
  9.1,                                    ! Maximum Dry-Bulb Temperature {C}
  0,                                      ! Daily Dry-Bulb Temperature Range {deltaC}
  9.1,                                    ! Humidity Indicating Conditions at Maximum Dry-Bulb {BasedOnField A3}
  98969,                                  ! Barometric Pressure {Pa}
  10.8,                                   ! Wind Speed {m/s}
  0,                                      ! Wind Direction {deg}
  0,                                      ! Sky Clearness
  0,                                      ! Rain Indicator
  0,                                      ! Snow Indicator
  21,                                     ! Day of Month
  1,                                      ! Month
  WinterDesignDay,                        ! Day Type
  0,                                      ! Daylight Saving Time Indicator
  Wetbulb,                                ! Humidity Indicating Type
  ,                                       ! Humidity Indicating Day Schedule Name
  DefaultMultipliers,                     ! Dry-Bulb Temperature Range Modifier Type
  ,                                       ! Dry-Bulb Temperature Range Modifier Schedule Name
  ASHRAEClearSky;                         ! Solar Model Indicator

OS:ComponentData,
  {6133eb4b-691b-42c8-81e5-03e63b728144}, ! Handle
  Component Data 1,                       ! Name
  {32212f0e-baa9-485c-9bf3-d625afe4193a}, ! UUID
  {8907f90c-3bb1-4e29-9226-3d7fbeb92731}, ! Version UUID
  1366309957,                             ! Creation Timestamp
  1366309957,                             ! Version Timestamp
  {8201b8fd-5403-4414-b7a4-599cc4563de8}; ! Name of Object 1

