
OS:Version,
  {30d0a838-1ea2-4f6c-8fc6-4d8c3ea1056e}, ! Handle
  0.9.3;                                  ! Version Identifier

OS:SizingPeriod:DesignDay,
  {d2089a97-100e-4e5c-a5eb-26742da5d17f}, ! Handle
  Portland International Ap Ann Htg 99% Condns DB, ! Name
  -1.9,                                   ! Maximum Dry-Bulb Temperature {C}
  0,                                      ! Daily Dry-Bulb Temperature Range {deltaC}
  -1.9,                                   ! Humidity Indicating Conditions at Maximum Dry-Bulb {BasedOnField A3}
  101253,                                 ! Barometric Pressure {Pa}
  5.1,                                    ! Wind Speed {m/s}
  120,                                    ! Wind Direction {deg}
  0,                                      ! Sky Clearness
  0,                                      ! Rain Indicator
  0,                                      ! Snow Indicator
  21,                                     ! Day of Month
  12,                                     ! Month
  WinterDesignDay,                        ! Day Type
  0,                                      ! Daylight Saving Time Indicator
  Wetbulb,                                ! Humidity Indicating Type
  ,                                       ! Humidity Indicating Day Schedule Name
  DefaultMultipliers,                     ! Dry-Bulb Temperature Range Modifier Type
  ,                                       ! Dry-Bulb Temperature Range Modifier Schedule Name
  ASHRAEClearSky;                         ! Solar Model Indicator

OS:ComponentData,
  {61dd56cf-3777-410a-8c40-7379dd88978f}, ! Handle
  Component Data 1,                       ! Name
  {9091fb01-e11b-4e5d-b3ff-6a1f01e329b2}, ! UUID
  {a1e40a2c-a2ec-47da-b643-10f337485d49}, ! Version UUID
  1366310082,                             ! Creation Timestamp
  1366310082,                             ! Version Timestamp
  {d2089a97-100e-4e5c-a5eb-26742da5d17f}; ! Name of Object 1

