
OS:Version,
  {8410bc31-b582-49d1-9011-7124b845e09f}, ! Handle
  0.9.3;                                  ! Version Identifier

OS:SizingPeriod:DesignDay,
  {cc718a25-c9bf-4747-8103-00e4332d2a43}, ! Handle
  Wittman Rgnl Ann Clg .4% Condns DB=>MWB, ! Name
  31.3,                                   ! Maximum Dry-Bulb Temperature {C}
  10.5,                                   ! Daily Dry-Bulb Temperature Range {deltaC}
  23.3,                                   ! Humidity Indicating Conditions at Maximum Dry-Bulb {BasedOnField A3}
  98322,                                  ! Barometric Pressure {Pa}
  4.8,                                    ! Wind Speed {m/s}
  210,                                    ! Wind Direction {deg}
  0,                                      ! Sky Clearness
  0,                                      ! Rain Indicator
  0,                                      ! Snow Indicator
  21,                                     ! Day of Month
  7,                                      ! Month
  SummerDesignDay,                        ! Day Type
  0,                                      ! Daylight Saving Time Indicator
  Wetbulb,                                ! Humidity Indicating Type
  ,                                       ! Humidity Indicating Day Schedule Name
  DefaultMultipliers,                     ! Dry-Bulb Temperature Range Modifier Type
  ,                                       ! Dry-Bulb Temperature Range Modifier Schedule Name
  ASHRAETau,                              ! Solar Model Indicator
  ,                                       ! Beam Solar Day Schedule Name
  ,                                       ! Diffuse Solar Day Schedule Name
  0.433,                                  ! ASHRAE Taub {dimensionless}
  2.113;                                  ! ASHRAE Taud {dimensionless}

OS:ComponentData,
  {31a9b794-0bd7-457d-aa98-f4c583efcbf5}, ! Handle
  Component Data 1,                       ! Name
  {0c0c21d5-cd63-4371-9000-40285dc6b31f}, ! UUID
  {9c059067-4ef7-4c9c-a2c3-23790ab9a3bc}, ! Version UUID
  1366311603,                             ! Creation Timestamp
  1366311603,                             ! Version Timestamp
  {cc718a25-c9bf-4747-8103-00e4332d2a43}; ! Name of Object 1

