
OS:Version,
  {5e5057cb-389a-4cc2-b8ce-1425b8efbc92}, ! Handle
  0.9.3;                                  ! Version Identifier

OS:SizingPeriod:DesignDay,
  {fc2aa6fb-3b6e-4c7c-a971-a7a6e277a5f6}, ! Handle
  SALT_LAKE Ann Clg 2% Condns DP=>MDB,    ! Name
  23.3,                                   ! Maximum Dry-Bulb Temperature {C}
  14.4,                                   ! Daily Dry-Bulb Temperature Range {deltaC}
  13.7,                                   ! Humidity Indicating Conditions at Maximum Dry-Bulb {BasedOnField A3}
  86779,                                  ! Barometric Pressure {Pa}
  5.1,                                    ! Wind Speed {m/s}
  340,                                    ! Wind Direction {deg}
  0,                                      ! Sky Clearness
  0,                                      ! Rain Indicator
  0,                                      ! Snow Indicator
  21,                                     ! Day of Month
  7,                                      ! Month
  SummerDesignDay,                        ! Day Type
  0,                                      ! Daylight Saving Time Indicator
  Dewpoint,                               ! Humidity Indicating Type
  ,                                       ! Humidity Indicating Day Schedule Name
  DefaultMultipliers,                     ! Dry-Bulb Temperature Range Modifier Type
  ,                                       ! Dry-Bulb Temperature Range Modifier Schedule Name
  ASHRAETau,                              ! Solar Model Indicator
  ,                                       ! Beam Solar Day Schedule Name
  ,                                       ! Diffuse Solar Day Schedule Name
  0.44,                                   ! ASHRAE Taub {dimensionless}
  1.968;                                  ! ASHRAE Taud {dimensionless}

OS:ComponentData,
  {38a30073-d4e1-4b78-a89b-d0a740e5895e}, ! Handle
  Component Data 1,                       ! Name
  {d2b38632-cb23-4c18-b120-566267f744d1}, ! UUID
  {378b1fd5-b2d0-4260-80a6-615b11f1f9e5}, ! Version UUID
  1366310989,                             ! Creation Timestamp
  1366310989,                             ! Version Timestamp
  {fc2aa6fb-3b6e-4c7c-a971-a7a6e277a5f6}; ! Name of Object 1

