
OS:Version,
  {df562c29-2690-4aea-a7ce-57ffcb30966b}, ! Handle
  0.9.3;                                  ! Version Identifier

OS:SizingPeriod:DesignDay,
  {7569b4cd-7529-4ce9-90f1-cdc25ac93b5a}, ! Handle
  Watertown Municipal Ap Ann Htg Wind 99% Condns WS=>MCDB, ! Name
  -8.1,                                   ! Maximum Dry-Bulb Temperature {C}
  0,                                      ! Daily Dry-Bulb Temperature Range {deltaC}
  -8.1,                                   ! Humidity Indicating Conditions at Maximum Dry-Bulb {BasedOnField A3}
  95095,                                  ! Barometric Pressure {Pa}
  12.6,                                   ! Wind Speed {m/s}
  320,                                    ! Wind Direction {deg}
  0,                                      ! Sky Clearness
  0,                                      ! Rain Indicator
  0,                                      ! Snow Indicator
  21,                                     ! Day of Month
  1,                                      ! Month
  WinterDesignDay,                        ! Day Type
  0,                                      ! Daylight Saving Time Indicator
  Wetbulb,                                ! Humidity Indicating Type
  ,                                       ! Humidity Indicating Day Schedule Name
  DefaultMultipliers,                     ! Dry-Bulb Temperature Range Modifier Type
  ,                                       ! Dry-Bulb Temperature Range Modifier Schedule Name
  ASHRAEClearSky;                         ! Solar Model Indicator

OS:ComponentData,
  {57700be4-5f0c-48ec-85eb-048c213006a7}, ! Handle
  Component Data 1,                       ! Name
  {0db0ef54-ce63-42d9-83e0-bf9655e65c0d}, ! UUID
  {5db4b807-f46e-4ccb-8ed3-4f1fb80aeb32}, ! Version UUID
  1366310467,                             ! Creation Timestamp
  1366310467,                             ! Version Timestamp
  {7569b4cd-7529-4ce9-90f1-cdc25ac93b5a}; ! Name of Object 1

