
OS:Version,
  {a1ff39fa-94f0-44f7-b51b-1dadee58596d}, ! Handle
  0.9.3;                                  ! Version Identifier

OS:SizingPeriod:DesignDay,
  {e83faaa0-d25c-445e-b8c1-c063d01d133f}, ! Handle
  Missoula Ann Clg 1% Condns DP=>MDB,     ! Name
  20.2,                                   ! Maximum Dry-Bulb Temperature {C}
  17.5,                                   ! Daily Dry-Bulb Temperature Range {deltaC}
  14,                                     ! Humidity Indicating Conditions at Maximum Dry-Bulb {BasedOnField A3}
  90180,                                  ! Barometric Pressure {Pa}
  4.4,                                    ! Wind Speed {m/s}
  320,                                    ! Wind Direction {deg}
  0,                                      ! Sky Clearness
  0,                                      ! Rain Indicator
  0,                                      ! Snow Indicator
  21,                                     ! Day of Month
  7,                                      ! Month
  SummerDesignDay,                        ! Day Type
  0,                                      ! Daylight Saving Time Indicator
  Dewpoint,                               ! Humidity Indicating Type
  ,                                       ! Humidity Indicating Day Schedule Name
  DefaultMultipliers,                     ! Dry-Bulb Temperature Range Modifier Type
  ,                                       ! Dry-Bulb Temperature Range Modifier Schedule Name
  ASHRAETau,                              ! Solar Model Indicator
  ,                                       ! Beam Solar Day Schedule Name
  ,                                       ! Diffuse Solar Day Schedule Name
  0.357,                                  ! ASHRAE Taub {dimensionless}
  2.409;                                  ! ASHRAE Taud {dimensionless}

OS:ComponentData,
  {47f8046e-189b-42c4-9220-0046eff1ef3a}, ! Handle
  Component Data 1,                       ! Name
  {dcb0b01e-d2fe-48e6-8d7a-529ea31a0394}, ! UUID
  {864b1dec-e5ea-414f-ae9a-34ba441a4950}, ! Version UUID
  1366308846,                             ! Creation Timestamp
  1366308846,                             ! Version Timestamp
  {e83faaa0-d25c-445e-b8c1-c063d01d133f}; ! Name of Object 1

