
OS:Version,
  {e65d3d11-686f-4dba-9fc4-9606b8b37784}, ! Handle
  0.9.3;                                  ! Version Identifier

OS:SizingPeriod:DesignDay,
  {df4ab1b0-5988-4ee4-96a2-33413762999b}, ! Handle
  Norwood Memorial Ann Htg Wind 99.6% Condns WS=>MCDB, ! Name
  -2.7,                                   ! Maximum Dry-Bulb Temperature {C}
  0,                                      ! Daily Dry-Bulb Temperature Range {deltaC}
  -2.7,                                   ! Humidity Indicating Conditions at Maximum Dry-Bulb {BasedOnField A3}
  101145,                                 ! Barometric Pressure {Pa}
  10.8,                                   ! Wind Speed {m/s}
  340,                                    ! Wind Direction {deg}
  0,                                      ! Sky Clearness
  0,                                      ! Rain Indicator
  0,                                      ! Snow Indicator
  21,                                     ! Day of Month
  1,                                      ! Month
  WinterDesignDay,                        ! Day Type
  0,                                      ! Daylight Saving Time Indicator
  Wetbulb,                                ! Humidity Indicating Type
  ,                                       ! Humidity Indicating Day Schedule Name
  DefaultMultipliers,                     ! Dry-Bulb Temperature Range Modifier Type
  ,                                       ! Dry-Bulb Temperature Range Modifier Schedule Name
  ASHRAEClearSky;                         ! Solar Model Indicator

OS:ComponentData,
  {7e1f852d-6c98-4383-9a13-6b3ba26b6d29}, ! Handle
  Component Data 1,                       ! Name
  {c6513a39-d348-45ee-ba1e-a4d23fe96be6}, ! UUID
  {5384d2f1-22b3-4146-b523-4540b120e31d}, ! Version UUID
  1366307810,                             ! Creation Timestamp
  1366307810,                             ! Version Timestamp
  {df4ab1b0-5988-4ee4-96a2-33413762999b}; ! Name of Object 1

