
OS:Version,
  {a251b33e-67fd-43db-b123-617071fc320d}, ! Handle
  0.9.3;                                  ! Version Identifier

OS:SizingPeriod:DesignDay,
  {dcab8340-d855-40ae-9437-308a68d52c38}, ! Handle
  Oxnard/Point Mugu NF Ann Htg 99.6% Condns DB, ! Name
  3.8,                                    ! Maximum Dry-Bulb Temperature {C}
  0,                                      ! Daily Dry-Bulb Temperature Range {deltaC}
  3.8,                                    ! Humidity Indicating Conditions at Maximum Dry-Bulb {BasedOnField A3}
  101289,                                 ! Barometric Pressure {Pa}
  2.1,                                    ! Wind Speed {m/s}
  20,                                     ! Wind Direction {deg}
  0,                                      ! Sky Clearness
  0,                                      ! Rain Indicator
  0,                                      ! Snow Indicator
  21,                                     ! Day of Month
  12,                                     ! Month
  WinterDesignDay,                        ! Day Type
  0,                                      ! Daylight Saving Time Indicator
  Wetbulb,                                ! Humidity Indicating Type
  ,                                       ! Humidity Indicating Day Schedule Name
  DefaultMultipliers,                     ! Dry-Bulb Temperature Range Modifier Type
  ,                                       ! Dry-Bulb Temperature Range Modifier Schedule Name
  ASHRAEClearSky;                         ! Solar Model Indicator

OS:ComponentData,
  {4bb69145-c840-42d8-8972-15ec7bda3ecc}, ! Handle
  Component Data 1,                       ! Name
  {af216f20-29ba-4d3e-bf50-d64ef08c3b56}, ! UUID
  {d30f7862-cf99-46b5-a0d8-25b92cd5dd64}, ! Version UUID
  1366306535,                             ! Creation Timestamp
  1366306535,                             ! Version Timestamp
  {dcab8340-d855-40ae-9437-308a68d52c38}; ! Name of Object 1

