
OS:Version,
  {74d8a01b-f7d0-4270-a809-2d2a1f696a95}, ! Handle
  0.9.3;                                  ! Version Identifier

OS:SizingPeriod:DesignDay,
  {cb6a1ec9-9602-4ed0-9b30-ada881232d17}, ! Handle
  Winslow Municipal Ap Ann Htg 99.6% Condns DB, ! Name
  -11.6,                                  ! Maximum Dry-Bulb Temperature {C}
  0,                                      ! Daily Dry-Bulb Temperature Range {deltaC}
  -11.6,                                  ! Humidity Indicating Conditions at Maximum Dry-Bulb {BasedOnField A3}
  84660,                                  ! Barometric Pressure {Pa}
  1.6,                                    ! Wind Speed {m/s}
  130,                                    ! Wind Direction {deg}
  0,                                      ! Sky Clearness
  0,                                      ! Rain Indicator
  0,                                      ! Snow Indicator
  21,                                     ! Day of Month
  12,                                     ! Month
  WinterDesignDay,                        ! Day Type
  0,                                      ! Daylight Saving Time Indicator
  Wetbulb,                                ! Humidity Indicating Type
  ,                                       ! Humidity Indicating Day Schedule Name
  DefaultMultipliers,                     ! Dry-Bulb Temperature Range Modifier Type
  ,                                       ! Dry-Bulb Temperature Range Modifier Schedule Name
  ASHRAEClearSky;                         ! Solar Model Indicator

OS:ComponentData,
  {b43db81d-e37b-4841-af73-6eab6ce1e8a9}, ! Handle
  Component Data 1,                       ! Name
  {701bdf83-c1b3-47de-9e6c-4f19456eb848}, ! UUID
  {061a8d51-3da2-4d51-ac04-0ef7a8aac029}, ! Version UUID
  1366306330,                             ! Creation Timestamp
  1366306330,                             ! Version Timestamp
  {cb6a1ec9-9602-4ed0-9b30-ada881232d17}; ! Name of Object 1

