
OS:Version,
  {51696c9a-3fdd-4d10-b0f5-78d06d4f462a}, ! Handle
  0.9.3;                                  ! Version Identifier

OS:SizingPeriod:DesignDay,
  {ef43e645-f26f-41c4-ad44-07c628c402e2}, ! Handle
  San Francisco Ann Hum_n 99.6% Condns DP=>MCDB, ! Name
  10.7,                                   ! Maximum Dry-Bulb Temperature {C}
  0,                                      ! Daily Dry-Bulb Temperature Range {deltaC}
  -3.7,                                   ! Humidity Indicating Conditions at Maximum Dry-Bulb {BasedOnField A3}
  101265,                                 ! Barometric Pressure {Pa}
  2.2,                                    ! Wind Speed {m/s}
  150,                                    ! Wind Direction {deg}
  0,                                      ! Sky Clearness
  0,                                      ! Rain Indicator
  0,                                      ! Snow Indicator
  21,                                     ! Day of Month
  1,                                      ! Month
  WinterDesignDay,                        ! Day Type
  0,                                      ! Daylight Saving Time Indicator
  Dewpoint,                               ! Humidity Indicating Type
  ,                                       ! Humidity Indicating Day Schedule Name
  DefaultMultipliers,                     ! Dry-Bulb Temperature Range Modifier Type
  ,                                       ! Dry-Bulb Temperature Range Modifier Schedule Name
  ASHRAEClearSky;                         ! Solar Model Indicator

OS:ComponentData,
  {3b8a69fb-b4d8-4d2d-8f17-7ef70694cf13}, ! Handle
  Component Data 1,                       ! Name
  {08dbbe8b-0f3d-4d65-9d91-f4bed862998d}, ! UUID
  {1c3041ac-fdaf-46b5-a7a0-4ee10d900e04}, ! Version UUID
  1366306592,                             ! Creation Timestamp
  1366306592,                             ! Version Timestamp
  {ef43e645-f26f-41c4-ad44-07c628c402e2}; ! Name of Object 1

