
OS:Version,
  {bf519261-ca76-43bf-914f-4daaf74dddfc}, ! Handle
  0.9.3;                                  ! Version Identifier

OS:SizingPeriod:DesignDay,
  {ab080ab0-5d2b-48d8-b1fa-c0d3dbccf66f}, ! Handle
  Peoria Greater Peoria Ap Ann Clg .4% Condns DP=>MDB, ! Name
  29.5,                                   ! Maximum Dry-Bulb Temperature {C}
  10.6,                                   ! Daily Dry-Bulb Temperature Range {deltaC}
  24.7,                                   ! Humidity Indicating Conditions at Maximum Dry-Bulb {BasedOnField A3}
  98957,                                  ! Barometric Pressure {Pa}
  4.8,                                    ! Wind Speed {m/s}
  220,                                    ! Wind Direction {deg}
  0,                                      ! Sky Clearness
  0,                                      ! Rain Indicator
  0,                                      ! Snow Indicator
  21,                                     ! Day of Month
  7,                                      ! Month
  SummerDesignDay,                        ! Day Type
  0,                                      ! Daylight Saving Time Indicator
  Dewpoint,                               ! Humidity Indicating Type
  ,                                       ! Humidity Indicating Day Schedule Name
  DefaultMultipliers,                     ! Dry-Bulb Temperature Range Modifier Type
  ,                                       ! Dry-Bulb Temperature Range Modifier Schedule Name
  ASHRAETau,                              ! Solar Model Indicator
  ,                                       ! Beam Solar Day Schedule Name
  ,                                       ! Diffuse Solar Day Schedule Name
  0.455,                                  ! ASHRAE Taub {dimensionless}
  2.051;                                  ! ASHRAE Taud {dimensionless}

OS:ComponentData,
  {97ad158c-df5f-4beb-8bf3-9c2e4adf9db3}, ! Handle
  Component Data 1,                       ! Name
  {ddad9523-976c-4ebe-afc3-7166f3c4112f}, ! UUID
  {234db892-6feb-4e8b-b8ee-b50e2e867d54}, ! Version UUID
  1366307381,                             ! Creation Timestamp
  1366307381,                             ! Version Timestamp
  {ab080ab0-5d2b-48d8-b1fa-c0d3dbccf66f}; ! Name of Object 1

