
OS:Version,
  {b53533e2-a8b2-4f7e-80fc-4a0bcee6eeee}, ! Handle
  0.9.3;                                  ! Version Identifier

OS:SizingPeriod:DesignDay,
  {0573fb64-c8f1-433a-878d-b07e2fc80079}, ! Handle
  Santa Rosa  Awos Ann Clg 2% Condns DB=>MWB, ! Name
  30.9,                                   ! Maximum Dry-Bulb Temperature {C}
  16.8,                                   ! Daily Dry-Bulb Temperature Range {deltaC}
  18.5,                                   ! Humidity Indicating Conditions at Maximum Dry-Bulb {BasedOnField A3}
  100869,                                 ! Barometric Pressure {Pa}
  3.9,                                    ! Wind Speed {m/s}
  180,                                    ! Wind Direction {deg}
  0,                                      ! Sky Clearness
  0,                                      ! Rain Indicator
  0,                                      ! Snow Indicator
  21,                                     ! Day of Month
  7,                                      ! Month
  SummerDesignDay,                        ! Day Type
  0,                                      ! Daylight Saving Time Indicator
  Wetbulb,                                ! Humidity Indicating Type
  ,                                       ! Humidity Indicating Day Schedule Name
  DefaultMultipliers,                     ! Dry-Bulb Temperature Range Modifier Type
  ,                                       ! Dry-Bulb Temperature Range Modifier Schedule Name
  ASHRAETau,                              ! Solar Model Indicator
  ,                                       ! Beam Solar Day Schedule Name
  ,                                       ! Diffuse Solar Day Schedule Name
  0.357,                                  ! ASHRAE Taub {dimensionless}
  2.519;                                  ! ASHRAE Taud {dimensionless}

