
OS:Version,
  {82625fd1-813f-4d33-9173-58603fda7e4c}, ! Handle
  0.9.3;                                  ! Version Identifier

OS:SizingPeriod:DesignDay,
  {69bf5da1-e1ed-46b4-9ad4-5cf77b716f6b}, ! Handle
  Pullman Moscow Rgnl Ann Clg 1% Condns Enth=>MDB, ! Name
  29.6,                                   ! Maximum Dry-Bulb Temperature {C}
  16.9,                                   ! Daily Dry-Bulb Temperature Range {deltaC}
  57500,                                  ! Humidity Indicating Conditions at Maximum Dry-Bulb {BasedOnField A3}
  92321,                                  ! Barometric Pressure {Pa}
  2.2,                                    ! Wind Speed {m/s}
  260,                                    ! Wind Direction {deg}
  0,                                      ! Sky Clearness
  0,                                      ! Rain Indicator
  0,                                      ! Snow Indicator
  21,                                     ! Day of Month
  7,                                      ! Month
  SummerDesignDay,                        ! Day Type
  0,                                      ! Daylight Saving Time Indicator
  Enthalpy,                               ! Humidity Indicating Type
  ,                                       ! Humidity Indicating Day Schedule Name
  DefaultMultipliers,                     ! Dry-Bulb Temperature Range Modifier Type
  ,                                       ! Dry-Bulb Temperature Range Modifier Schedule Name
  ASHRAETau,                              ! Solar Model Indicator
  ,                                       ! Beam Solar Day Schedule Name
  ,                                       ! Diffuse Solar Day Schedule Name
  0.365,                                  ! ASHRAE Taub {dimensionless}
  2.328;                                  ! ASHRAE Taud {dimensionless}

OS:ComponentData,
  {e09133cd-71ea-4735-a03e-4cc089a22563}, ! Handle
  Component Data 1,                       ! Name
  {42029374-9f5a-4cdd-b575-ee34cf2e0bd6}, ! UUID
  {fdb5a651-5aef-468c-b957-f6e524d423ac}, ! Version UUID
  1366311332,                             ! Creation Timestamp
  1366311332,                             ! Version Timestamp
  {69bf5da1-e1ed-46b4-9ad4-5cf77b716f6b}; ! Name of Object 1

