
OS:Version,
  {c611a4fb-1ce7-4d14-a5fb-615493b0d113}, ! Handle
  0.9.3;                                  ! Version Identifier

OS:SizingPeriod:DesignDay,
  {0871ebb0-e80a-497d-9feb-92f1d8cfc081}, ! Handle
  Truth Or Consequences Muni Ap Ann Clg 2% Condns DB=>MWB, ! Name
  33.9,                                   ! Maximum Dry-Bulb Temperature {C}
  13.9,                                   ! Daily Dry-Bulb Temperature Range {deltaC}
  16.1,                                   ! Humidity Indicating Conditions at Maximum Dry-Bulb {BasedOnField A3}
  84784,                                  ! Barometric Pressure {Pa}
  4.6,                                    ! Wind Speed {m/s}
  170,                                    ! Wind Direction {deg}
  0,                                      ! Sky Clearness
  0,                                      ! Rain Indicator
  0,                                      ! Snow Indicator
  21,                                     ! Day of Month
  7,                                      ! Month
  SummerDesignDay,                        ! Day Type
  0,                                      ! Daylight Saving Time Indicator
  Wetbulb,                                ! Humidity Indicating Type
  ,                                       ! Humidity Indicating Day Schedule Name
  DefaultMultipliers,                     ! Dry-Bulb Temperature Range Modifier Type
  ,                                       ! Dry-Bulb Temperature Range Modifier Schedule Name
  ASHRAETau,                              ! Solar Model Indicator
  ,                                       ! Beam Solar Day Schedule Name
  ,                                       ! Diffuse Solar Day Schedule Name
  0.543,                                  ! ASHRAE Taub {dimensionless}
  1.689;                                  ! ASHRAE Taud {dimensionless}

OS:ComponentData,
  {35e847ef-d029-4b1c-8034-2aaa0f1b11ea}, ! Handle
  Component Data 1,                       ! Name
  {9051f743-31bc-459a-aef9-7724a55f16d2}, ! UUID
  {773d6da9-3391-42db-ba6f-2acacdc4c810}, ! Version UUID
  1366309449,                             ! Creation Timestamp
  1366309449,                             ! Version Timestamp
  {0871ebb0-e80a-497d-9feb-92f1d8cfc081}; ! Name of Object 1

