
OS:Version,
  {6a13f5ad-6d77-4d62-b827-e215a9bf2715}, ! Handle
  0.9.3;                                  ! Version Identifier

OS:SizingPeriod:DesignDay,
  {e059c47e-2d13-4bb4-9f59-9308aca5fbec}, ! Handle
  San Antonio/Randolph A Ann Clg 1% Condns DB=>MWB, ! Name
  36.1,                                   ! Maximum Dry-Bulb Temperature {C}
  11.2,                                   ! Daily Dry-Bulb Temperature Range {deltaC}
  23.1,                                   ! Humidity Indicating Conditions at Maximum Dry-Bulb {BasedOnField A3}
  98569,                                  ! Barometric Pressure {Pa}
  4.3,                                    ! Wind Speed {m/s}
  160,                                    ! Wind Direction {deg}
  0,                                      ! Sky Clearness
  0,                                      ! Rain Indicator
  0,                                      ! Snow Indicator
  21,                                     ! Day of Month
  8,                                      ! Month
  SummerDesignDay,                        ! Day Type
  0,                                      ! Daylight Saving Time Indicator
  Wetbulb,                                ! Humidity Indicating Type
  ,                                       ! Humidity Indicating Day Schedule Name
  DefaultMultipliers,                     ! Dry-Bulb Temperature Range Modifier Type
  ,                                       ! Dry-Bulb Temperature Range Modifier Schedule Name
  ASHRAETau,                              ! Solar Model Indicator
  ,                                       ! Beam Solar Day Schedule Name
  ,                                       ! Diffuse Solar Day Schedule Name
  0.449,                                  ! ASHRAE Taub {dimensionless}
  2.144;                                  ! ASHRAE Taud {dimensionless}

OS:ComponentData,
  {1d5e6341-0d25-4efb-a925-6dc90e09c517}, ! Handle
  Component Data 1,                       ! Name
  {a339e822-45d5-4d13-bc81-3ff2c6905c2c}, ! UUID
  {d6d12557-bade-4ccf-9f1d-ad427ea24db7}, ! Version UUID
  1366310894,                             ! Creation Timestamp
  1366310894,                             ! Version Timestamp
  {e059c47e-2d13-4bb4-9f59-9308aca5fbec}; ! Name of Object 1

