
OS:Version,
  {8479399c-326b-4241-9abf-7e79f961bcf7}, ! Handle
  0.9.3;                                  ! Version Identifier

OS:SizingPeriod:DesignDay,
  {4d3accac-c377-461c-932a-bfbd6659dbd6}, ! Handle
  Manassas Muni Awos Ann Clg 2% Condns DB=>MWB, ! Name
  31.2,                                   ! Maximum Dry-Bulb Temperature {C}
  11.3,                                   ! Daily Dry-Bulb Temperature Range {deltaC}
  22.5,                                   ! Humidity Indicating Conditions at Maximum Dry-Bulb {BasedOnField A3}
  100618,                                 ! Barometric Pressure {Pa}
  3.5,                                    ! Wind Speed {m/s}
  200,                                    ! Wind Direction {deg}
  0,                                      ! Sky Clearness
  0,                                      ! Rain Indicator
  0,                                      ! Snow Indicator
  21,                                     ! Day of Month
  7,                                      ! Month
  SummerDesignDay,                        ! Day Type
  0,                                      ! Daylight Saving Time Indicator
  Wetbulb,                                ! Humidity Indicating Type
  ,                                       ! Humidity Indicating Day Schedule Name
  DefaultMultipliers,                     ! Dry-Bulb Temperature Range Modifier Type
  ,                                       ! Dry-Bulb Temperature Range Modifier Schedule Name
  ASHRAETau,                              ! Solar Model Indicator
  ,                                       ! Beam Solar Day Schedule Name
  ,                                       ! Diffuse Solar Day Schedule Name
  0.555,                                  ! ASHRAE Taub {dimensionless}
  1.764;                                  ! ASHRAE Taud {dimensionless}

OS:ComponentData,
  {36c67ca8-e70e-4589-a987-18c74efafd45}, ! Handle
  Component Data 1,                       ! Name
  {48023d2f-a5c9-4dfb-b78b-8254080672bb}, ! UUID
  {5859b7b4-a53d-4d4c-ae29-e75491dc4d4d}, ! Version UUID
  1366311095,                             ! Creation Timestamp
  1366311095,                             ! Version Timestamp
  {4d3accac-c377-461c-932a-bfbd6659dbd6}; ! Name of Object 1

