
OS:Version,
  {b1df5f29-0829-46c6-812a-ab5ef3c6905b}, ! Handle
  0.9.3;                                  ! Version Identifier

OS:SizingPeriod:DesignDay,
  {b619eb2f-faea-42dd-b182-6b8d7195ec07}, ! Handle
  TOPEKA Ann Htg 99.6% Condns DB,         ! Name
  -17.4,                                  ! Maximum Dry-Bulb Temperature {C}
  0,                                      ! Daily Dry-Bulb Temperature Range {deltaC}
  -17.4,                                  ! Humidity Indicating Conditions at Maximum Dry-Bulb {BasedOnField A3}
  98123,                                  ! Barometric Pressure {Pa}
  3.6,                                    ! Wind Speed {m/s}
  320,                                    ! Wind Direction {deg}
  0,                                      ! Sky Clearness
  0,                                      ! Rain Indicator
  0,                                      ! Snow Indicator
  21,                                     ! Day of Month
  1,                                      ! Month
  WinterDesignDay,                        ! Day Type
  0,                                      ! Daylight Saving Time Indicator
  Wetbulb,                                ! Humidity Indicating Type
  ,                                       ! Humidity Indicating Day Schedule Name
  DefaultMultipliers,                     ! Dry-Bulb Temperature Range Modifier Type
  ,                                       ! Dry-Bulb Temperature Range Modifier Schedule Name
  ASHRAEClearSky;                         ! Solar Model Indicator

OS:ComponentData,
  {745d9ac2-d367-48c1-9297-205e7199f839}, ! Handle
  Component Data 1,                       ! Name
  {2d8f65aa-9571-4972-b6cf-bef7cad683c0}, ! UUID
  {66d586e1-883e-4de4-9c5c-981f6b35f1fa}, ! Version UUID
  1366307590,                             ! Creation Timestamp
  1366307590,                             ! Version Timestamp
  {b619eb2f-faea-42dd-b182-6b8d7195ec07}; ! Name of Object 1

