
OS:Version,
  {146dd52d-1156-4df7-bcb8-ef65a8e85888}, ! Handle
  0.9.3;                                  ! Version Identifier

OS:SizingPeriod:DesignDay,
  {4161249f-307b-49c0-a396-9fb2285fe5de}, ! Handle
  PUEBLO Ann Clg 2% Condns WB=>MDB,       ! Name
  28.7,                                   ! Maximum Dry-Bulb Temperature {C}
  18,                                     ! Daily Dry-Bulb Temperature Range {deltaC}
  18.4,                                   ! Humidity Indicating Conditions at Maximum Dry-Bulb {BasedOnField A3}
  85191,                                  ! Barometric Pressure {Pa}
  5.1,                                    ! Wind Speed {m/s}
  120,                                    ! Wind Direction {deg}
  0,                                      ! Sky Clearness
  0,                                      ! Rain Indicator
  0,                                      ! Snow Indicator
  21,                                     ! Day of Month
  7,                                      ! Month
  SummerDesignDay,                        ! Day Type
  0,                                      ! Daylight Saving Time Indicator
  Wetbulb,                                ! Humidity Indicating Type
  ,                                       ! Humidity Indicating Day Schedule Name
  DefaultMultipliers,                     ! Dry-Bulb Temperature Range Modifier Type
  ,                                       ! Dry-Bulb Temperature Range Modifier Schedule Name
  ASHRAETau,                              ! Solar Model Indicator
  ,                                       ! Beam Solar Day Schedule Name
  ,                                       ! Diffuse Solar Day Schedule Name
  0.435,                                  ! ASHRAE Taub {dimensionless}
  1.969;                                  ! ASHRAE Taud {dimensionless}

OS:ComponentData,
  {449b5286-d694-4df1-8d27-be8bf547ccd2}, ! Handle
  Component Data 1,                       ! Name
  {855fe0f9-cbdc-4a16-8544-ebb91aead874}, ! UUID
  {e357bfa5-6ea2-420a-9c45-e54c9300b15d}, ! Version UUID
  1366306726,                             ! Creation Timestamp
  1366306726,                             ! Version Timestamp
  {4161249f-307b-49c0-a396-9fb2285fe5de}; ! Name of Object 1

