
OS:Version,
  {9461796f-eb12-45fb-a3f5-93164dca6bb3}, ! Handle
  0.9.3;                                  ! Version Identifier

OS:SizingPeriod:DesignDay,
  {81b03a0e-d09a-4341-84f7-1a2395d0b57e}, ! Handle
  Sierra Blanca Rgnl Ann Htg Wind 99% Condns WS=>MCDB, ! Name
  7.5,                                    ! Maximum Dry-Bulb Temperature {C}
  0,                                      ! Daily Dry-Bulb Temperature Range {deltaC}
  7.5,                                    ! Humidity Indicating Conditions at Maximum Dry-Bulb {BasedOnField A3}
  78728,                                  ! Barometric Pressure {Pa}
  14.8,                                   ! Wind Speed {m/s}
  130,                                    ! Wind Direction {deg}
  0,                                      ! Sky Clearness
  0,                                      ! Rain Indicator
  0,                                      ! Snow Indicator
  21,                                     ! Day of Month
  12,                                     ! Month
  WinterDesignDay,                        ! Day Type
  0,                                      ! Daylight Saving Time Indicator
  Wetbulb,                                ! Humidity Indicating Type
  ,                                       ! Humidity Indicating Day Schedule Name
  DefaultMultipliers,                     ! Dry-Bulb Temperature Range Modifier Type
  ,                                       ! Dry-Bulb Temperature Range Modifier Schedule Name
  ASHRAEClearSky;                         ! Solar Model Indicator

OS:ComponentData,
  {27827c08-819c-4c7a-9fa0-27c4d7004389}, ! Handle
  Component Data 1,                       ! Name
  {025880b9-dce0-4702-9afb-3bbc7ff8ea08}, ! UUID
  {663f0c73-df81-49ff-8b18-b1be6622591c}, ! Version UUID
  1366309432,                             ! Creation Timestamp
  1366309432,                             ! Version Timestamp
  {81b03a0e-d09a-4341-84f7-1a2395d0b57e}; ! Name of Object 1

