
OS:Version,
  {d7b6f6a0-cd71-4de5-a0e0-a57d8d0f76f8}, ! Handle
  0.9.3;                                  ! Version Identifier

OS:SizingPeriod:DesignDay,
  {d5121f1c-13a8-479e-aab9-4d9ae1d5580b}, ! Handle
  San Angelo Ann Htg 99% Condns DB,       ! Name
  -3.9,                                   ! Maximum Dry-Bulb Temperature {C}
  0,                                      ! Daily Dry-Bulb Temperature Range {deltaC}
  -3.9,                                   ! Humidity Indicating Conditions at Maximum Dry-Bulb {BasedOnField A3}
  94526,                                  ! Barometric Pressure {Pa}
  4.1,                                    ! Wind Speed {m/s}
  40,                                     ! Wind Direction {deg}
  0,                                      ! Sky Clearness
  0,                                      ! Rain Indicator
  0,                                      ! Snow Indicator
  21,                                     ! Day of Month
  1,                                      ! Month
  WinterDesignDay,                        ! Day Type
  0,                                      ! Daylight Saving Time Indicator
  Wetbulb,                                ! Humidity Indicating Type
  ,                                       ! Humidity Indicating Day Schedule Name
  DefaultMultipliers,                     ! Dry-Bulb Temperature Range Modifier Type
  ,                                       ! Dry-Bulb Temperature Range Modifier Schedule Name
  ASHRAEClearSky;                         ! Solar Model Indicator

OS:ComponentData,
  {af6223c1-ab37-4906-8af3-2683e3ef3380}, ! Handle
  Component Data 1,                       ! Name
  {6c6a7bc4-7d8c-4cd8-bb44-8b6bb86ae338}, ! UUID
  {c1250820-f646-4a2b-952d-6260bf946ff3}, ! Version UUID
  1366310867,                             ! Creation Timestamp
  1366310867,                             ! Version Timestamp
  {d5121f1c-13a8-479e-aab9-4d9ae1d5580b}; ! Name of Object 1

