
OS:Version,
  {4bbc9873-0f38-4c32-ab48-fdc132d4219b}, ! Handle
  0.9.3;                                  ! Version Identifier

OS:SizingPeriod:DesignDay,
  {71083ea1-df76-4d48-836d-870f9a33bb2c}, ! Handle
  Modesto City County Ap Ann Clg 2% Condns DP=>MDB, ! Name
  26.6,                                   ! Maximum Dry-Bulb Temperature {C}
  16.7,                                   ! Daily Dry-Bulb Temperature Range {deltaC}
  15.3,                                   ! Humidity Indicating Conditions at Maximum Dry-Bulb {BasedOnField A3}
  100965,                                 ! Barometric Pressure {Pa}
  4.5,                                    ! Wind Speed {m/s}
  320,                                    ! Wind Direction {deg}
  0,                                      ! Sky Clearness
  0,                                      ! Rain Indicator
  0,                                      ! Snow Indicator
  21,                                     ! Day of Month
  7,                                      ! Month
  SummerDesignDay,                        ! Day Type
  0,                                      ! Daylight Saving Time Indicator
  Dewpoint,                               ! Humidity Indicating Type
  ,                                       ! Humidity Indicating Day Schedule Name
  DefaultMultipliers,                     ! Dry-Bulb Temperature Range Modifier Type
  ,                                       ! Dry-Bulb Temperature Range Modifier Schedule Name
  ASHRAETau,                              ! Solar Model Indicator
  ,                                       ! Beam Solar Day Schedule Name
  ,                                       ! Diffuse Solar Day Schedule Name
  0.392,                                  ! ASHRAE Taub {dimensionless}
  2.306;                                  ! ASHRAE Taud {dimensionless}

OS:ComponentData,
  {b5db7e41-f7d6-401d-803d-81e76f108101}, ! Handle
  Component Data 1,                       ! Name
  {df1a8465-afcb-4bdd-b101-ee8fe7f3cd6d}, ! UUID
  {0f9aaf38-4cdd-4c2a-b482-002f89602dc3}, ! Version UUID
  1366306491,                             ! Creation Timestamp
  1366306491,                             ! Version Timestamp
  {71083ea1-df76-4d48-836d-870f9a33bb2c}; ! Name of Object 1

