
OS:Version,
  {bf87ec21-433b-41c3-b2a2-550a1706f322}, ! Handle
  0.9.3;                                  ! Version Identifier

OS:SizingPeriod:DesignDay,
  {ae81b12f-6b75-499d-8992-5ae5f51b6b07}, ! Handle
  Minot Faa Ap Ann Clg 1% Condns DB=>MWB, ! Name
  31.1,                                   ! Maximum Dry-Bulb Temperature {C}
  12.2,                                   ! Daily Dry-Bulb Temperature Range {deltaC}
  20.1,                                   ! Humidity Indicating Conditions at Maximum Dry-Bulb {BasedOnField A3}
  95198,                                  ! Barometric Pressure {Pa}
  5.8,                                    ! Wind Speed {m/s}
  160,                                    ! Wind Direction {deg}
  0,                                      ! Sky Clearness
  0,                                      ! Rain Indicator
  0,                                      ! Snow Indicator
  21,                                     ! Day of Month
  7,                                      ! Month
  SummerDesignDay,                        ! Day Type
  0,                                      ! Daylight Saving Time Indicator
  Wetbulb,                                ! Humidity Indicating Type
  ,                                       ! Humidity Indicating Day Schedule Name
  DefaultMultipliers,                     ! Dry-Bulb Temperature Range Modifier Type
  ,                                       ! Dry-Bulb Temperature Range Modifier Schedule Name
  ASHRAETau,                              ! Solar Model Indicator
  ,                                       ! Beam Solar Day Schedule Name
  ,                                       ! Diffuse Solar Day Schedule Name
  0.386,                                  ! ASHRAE Taub {dimensionless}
  2.249;                                  ! ASHRAE Taud {dimensionless}

