
OS:Version,
  {eeb65287-e43d-43b3-b563-b7e708a3fc18}, ! Handle
  0.9.3;                                  ! Version Identifier

OS:SizingPeriod:DesignDay,
  {d867e72e-931e-48b3-8674-84d46863dcfc}, ! Handle
  Zanesville Municipal Ap Ann Clg 2% Condns DB=>MWB, ! Name
  29.6,                                   ! Maximum Dry-Bulb Temperature {C}
  11.2,                                   ! Daily Dry-Bulb Temperature Range {deltaC}
  21.9,                                   ! Humidity Indicating Conditions at Maximum Dry-Bulb {BasedOnField A3}
  98147,                                  ! Barometric Pressure {Pa}
  4.2,                                    ! Wind Speed {m/s}
  240,                                    ! Wind Direction {deg}
  0,                                      ! Sky Clearness
  0,                                      ! Rain Indicator
  0,                                      ! Snow Indicator
  21,                                     ! Day of Month
  7,                                      ! Month
  SummerDesignDay,                        ! Day Type
  0,                                      ! Daylight Saving Time Indicator
  Wetbulb,                                ! Humidity Indicating Type
  ,                                       ! Humidity Indicating Day Schedule Name
  DefaultMultipliers,                     ! Dry-Bulb Temperature Range Modifier Type
  ,                                       ! Dry-Bulb Temperature Range Modifier Schedule Name
  ASHRAETau,                              ! Solar Model Indicator
  ,                                       ! Beam Solar Day Schedule Name
  ,                                       ! Diffuse Solar Day Schedule Name
  0.485,                                  ! ASHRAE Taub {dimensionless}
  1.937;                                  ! ASHRAE Taud {dimensionless}

OS:ComponentData,
  {9d70b052-58c4-424b-9ac9-8032b0f18d0f}, ! Handle
  Component Data 1,                       ! Name
  {9293d202-7f1a-4559-9657-23a406789fbe}, ! UUID
  {a6ddc461-1426-4842-af57-a576c0c59783}, ! Version UUID
  1366309874,                             ! Creation Timestamp
  1366309874,                             ! Version Timestamp
  {d867e72e-931e-48b3-8674-84d46863dcfc}; ! Name of Object 1

