
OS:Version,
  {4a6a46c1-c12f-4d7a-bbd7-67de8b23db36}, ! Handle
  0.9.3;                                  ! Version Identifier

OS:SizingPeriod:DesignDay,
  {0e15e587-11cc-4c36-852c-fa8974595134}, ! Handle
  Visalia Muni  Awos Ann Clg 2% Condns DB=>MWB, ! Name
  35.1,                                   ! Maximum Dry-Bulb Temperature {C}
  17,                                     ! Daily Dry-Bulb Temperature Range {deltaC}
  20.9,                                   ! Humidity Indicating Conditions at Maximum Dry-Bulb {BasedOnField A3}
  100260,                                 ! Barometric Pressure {Pa}
  3.3,                                    ! Wind Speed {m/s}
  300,                                    ! Wind Direction {deg}
  0,                                      ! Sky Clearness
  0,                                      ! Rain Indicator
  0,                                      ! Snow Indicator
  21,                                     ! Day of Month
  7,                                      ! Month
  SummerDesignDay,                        ! Day Type
  0,                                      ! Daylight Saving Time Indicator
  Wetbulb,                                ! Humidity Indicating Type
  ,                                       ! Humidity Indicating Day Schedule Name
  DefaultMultipliers,                     ! Dry-Bulb Temperature Range Modifier Type
  ,                                       ! Dry-Bulb Temperature Range Modifier Schedule Name
  ASHRAETau,                              ! Solar Model Indicator
  ,                                       ! Beam Solar Day Schedule Name
  ,                                       ! Diffuse Solar Day Schedule Name
  0.429,                                  ! ASHRAE Taub {dimensionless}
  2.129;                                  ! ASHRAE Taud {dimensionless}

OS:ComponentData,
  {9cd16df4-4787-4c70-8cb2-bf3c79393676}, ! Handle
  Component Data 1,                       ! Name
  {3a676e21-54e9-4dec-8b96-b5f85f47aaf1}, ! UUID
  {4835859f-9e32-45a0-b3f6-55e7352a78f4}, ! Version UUID
  1366306632,                             ! Creation Timestamp
  1366306632,                             ! Version Timestamp
  {0e15e587-11cc-4c36-852c-fa8974595134}; ! Name of Object 1

