
OS:Version,
  {3748fe84-c69b-4147-83d6-1c47331b1dca}, ! Handle
  0.9.3;                                  ! Version Identifier

OS:SizingPeriod:DesignDay,
  {ebd95fb0-916f-40a5-973a-2e74689b0d04}, ! Handle
  Youngstown Regional Airport Ann Htg Wind 99.6% Condns WS=>MCDB, ! Name
  -4.5,                                   ! Maximum Dry-Bulb Temperature {C}
  0,                                      ! Daily Dry-Bulb Temperature Range {deltaC}
  -4.5,                                   ! Humidity Indicating Conditions at Maximum Dry-Bulb {BasedOnField A3}
  97074,                                  ! Barometric Pressure {Pa}
  11.8,                                   ! Wind Speed {m/s}
  260,                                    ! Wind Direction {deg}
  0,                                      ! Sky Clearness
  0,                                      ! Rain Indicator
  0,                                      ! Snow Indicator
  21,                                     ! Day of Month
  1,                                      ! Month
  WinterDesignDay,                        ! Day Type
  0,                                      ! Daylight Saving Time Indicator
  Wetbulb,                                ! Humidity Indicating Type
  ,                                       ! Humidity Indicating Day Schedule Name
  DefaultMultipliers,                     ! Dry-Bulb Temperature Range Modifier Type
  ,                                       ! Dry-Bulb Temperature Range Modifier Schedule Name
  ASHRAEClearSky;                         ! Solar Model Indicator

OS:ComponentData,
  {8e62110e-0579-4a8d-b9be-e9acdcd62e97}, ! Handle
  Component Data 1,                       ! Name
  {e96a1ace-b85b-44b5-a41e-c064b42919c3}, ! UUID
  {f908671c-0901-46cc-b613-8585f0990108}, ! Version UUID
  1366309868,                             ! Creation Timestamp
  1366309868,                             ! Version Timestamp
  {ebd95fb0-916f-40a5-973a-2e74689b0d04}; ! Name of Object 1

