
OS:Version,
  {fd4bdfec-0985-469b-a1de-46507262e927}, ! Handle
  0.9.3;                                  ! Version Identifier

OS:SizingPeriod:DesignDay,
  {0f88f491-aef0-4b95-80b6-ac03521aca0f}, ! Handle
  Spokane/Fairchild AFB Ann Clg 1% Condns DB=>MWB, ! Name
  31.9,                                   ! Maximum Dry-Bulb Temperature {C}
  14.6,                                   ! Daily Dry-Bulb Temperature Range {deltaC}
  16.6,                                   ! Humidity Indicating Conditions at Maximum Dry-Bulb {BasedOnField A3}
  92634,                                  ! Barometric Pressure {Pa}
  4.1,                                    ! Wind Speed {m/s}
  240,                                    ! Wind Direction {deg}
  0,                                      ! Sky Clearness
  0,                                      ! Rain Indicator
  0,                                      ! Snow Indicator
  21,                                     ! Day of Month
  7,                                      ! Month
  SummerDesignDay,                        ! Day Type
  0,                                      ! Daylight Saving Time Indicator
  Wetbulb,                                ! Humidity Indicating Type
  ,                                       ! Humidity Indicating Day Schedule Name
  DefaultMultipliers,                     ! Dry-Bulb Temperature Range Modifier Type
  ,                                       ! Dry-Bulb Temperature Range Modifier Schedule Name
  ASHRAETau,                              ! Solar Model Indicator
  ,                                       ! Beam Solar Day Schedule Name
  ,                                       ! Diffuse Solar Day Schedule Name
  0.354,                                  ! ASHRAE Taub {dimensionless}
  2.385;                                  ! ASHRAE Taud {dimensionless}

OS:ComponentData,
  {72cee2dd-7bcf-47a8-98f1-335f2cf8ca89}, ! Handle
  Component Data 1,                       ! Name
  {107628e2-dc87-4ae5-817d-31588666bef5}, ! UUID
  {40d87e4e-e7c0-427c-b392-aaff3664ce9e}, ! Version UUID
  1366311389,                             ! Creation Timestamp
  1366311389,                             ! Version Timestamp
  {0f88f491-aef0-4b95-80b6-ac03521aca0f}; ! Name of Object 1

