
OS:Version,
  {06810159-177b-4885-953b-5275357bc6e3}, ! Handle
  0.9.3;                                  ! Version Identifier

OS:SizingPeriod:DesignDay,
  {510bba3e-9329-40e1-94cf-75056fcc5f0e}, ! Handle
  Newark International Arpt Ann Clg 1% Condns WB=>MDB, ! Name
  29.9,                                   ! Maximum Dry-Bulb Temperature {C}
  8.9,                                    ! Daily Dry-Bulb Temperature Range {deltaC}
  24.6,                                   ! Humidity Indicating Conditions at Maximum Dry-Bulb {BasedOnField A3}
  101289,                                 ! Barometric Pressure {Pa}
  5.8,                                    ! Wind Speed {m/s}
  250,                                    ! Wind Direction {deg}
  0,                                      ! Sky Clearness
  0,                                      ! Rain Indicator
  0,                                      ! Snow Indicator
  21,                                     ! Day of Month
  7,                                      ! Month
  SummerDesignDay,                        ! Day Type
  0,                                      ! Daylight Saving Time Indicator
  Wetbulb,                                ! Humidity Indicating Type
  ,                                       ! Humidity Indicating Day Schedule Name
  DefaultMultipliers,                     ! Dry-Bulb Temperature Range Modifier Type
  ,                                       ! Dry-Bulb Temperature Range Modifier Schedule Name
  ASHRAETau,                              ! Solar Model Indicator
  ,                                       ! Beam Solar Day Schedule Name
  ,                                       ! Diffuse Solar Day Schedule Name
  0.528,                                  ! ASHRAE Taub {dimensionless}
  1.831;                                  ! ASHRAE Taud {dimensionless}

OS:ComponentData,
  {1bacb346-e35c-4d90-82ae-daa0718d1bc4}, ! Handle
  Component Data 1,                       ! Name
  {db2bb1f1-9b97-4d0c-9749-c4a6e7270feb}, ! UUID
  {1931ef76-3f87-4274-b4a7-f137361ee21b}, ! Version UUID
  1366309339,                             ! Creation Timestamp
  1366309339,                             ! Version Timestamp
  {510bba3e-9329-40e1-94cf-75056fcc5f0e}; ! Name of Object 1

