
OS:Version,
  {b8c1a26c-2b37-401f-9533-36415c0f4656}, ! Handle
  0.9.3;                                  ! Version Identifier

OS:SizingPeriod:DesignDay,
  {1a1871e6-f97b-4d1f-b4ce-4fbd98b64e74}, ! Handle
  Omaha Eppley Airfield Ann Htg Wind 99.6% Condns WS=>MCDB, ! Name
  -8.6,                                   ! Maximum Dry-Bulb Temperature {C}
  0,                                      ! Daily Dry-Bulb Temperature Range {deltaC}
  -8.6,                                   ! Humidity Indicating Conditions at Maximum Dry-Bulb {BasedOnField A3}
  97784,                                  ! Barometric Pressure {Pa}
  13.8,                                   ! Wind Speed {m/s}
  340,                                    ! Wind Direction {deg}
  0,                                      ! Sky Clearness
  0,                                      ! Rain Indicator
  0,                                      ! Snow Indicator
  21,                                     ! Day of Month
  1,                                      ! Month
  WinterDesignDay,                        ! Day Type
  0,                                      ! Daylight Saving Time Indicator
  Wetbulb,                                ! Humidity Indicating Type
  ,                                       ! Humidity Indicating Day Schedule Name
  DefaultMultipliers,                     ! Dry-Bulb Temperature Range Modifier Type
  ,                                       ! Dry-Bulb Temperature Range Modifier Schedule Name
  ASHRAEClearSky;                         ! Solar Model Indicator

OS:ComponentData,
  {9ddeff9b-e47e-4521-a351-f11c4dc14c8f}, ! Handle
  Component Data 1,                       ! Name
  {9caf1ad3-f345-4a2b-b1d7-11ff8a56a25f}, ! UUID
  {6e58f253-76a3-4b93-bb25-22d065a1e566}, ! Version UUID
  1366309172,                             ! Creation Timestamp
  1366309172,                             ! Version Timestamp
  {1a1871e6-f97b-4d1f-b4ce-4fbd98b64e74}; ! Name of Object 1

