
OS:Version,
  {a9335e6b-11c1-49e6-9f4c-c9e0c38dfdd3}, ! Handle
  0.9.3;                                  ! Version Identifier

OS:SizingPeriod:DesignDay,
  {a8518d9c-cba3-432b-8979-74f5a4d96f44}, ! Handle
  WILLIAMSPORT Ann Clg 2% Condns Enth=>MDB, ! Name
  27,                                     ! Maximum Dry-Bulb Temperature {C}
  11.6,                                   ! Daily Dry-Bulb Temperature Range {deltaC}
  67400,                                  ! Humidity Indicating Conditions at Maximum Dry-Bulb {BasedOnField A3}
  98440,                                  ! Barometric Pressure {Pa}
  4.2,                                    ! Wind Speed {m/s}
  260,                                    ! Wind Direction {deg}
  0,                                      ! Sky Clearness
  0,                                      ! Rain Indicator
  0,                                      ! Snow Indicator
  21,                                     ! Day of Month
  7,                                      ! Month
  SummerDesignDay,                        ! Day Type
  0,                                      ! Daylight Saving Time Indicator
  Enthalpy,                               ! Humidity Indicating Type
  ,                                       ! Humidity Indicating Day Schedule Name
  DefaultMultipliers,                     ! Dry-Bulb Temperature Range Modifier Type
  ,                                       ! Dry-Bulb Temperature Range Modifier Schedule Name
  ASHRAETau,                              ! Solar Model Indicator
  ,                                       ! Beam Solar Day Schedule Name
  ,                                       ! Diffuse Solar Day Schedule Name
  0.499,                                  ! ASHRAE Taub {dimensionless}
  1.884;                                  ! ASHRAE Taud {dimensionless}

OS:ComponentData,
  {324a98ba-2b30-41f3-a45f-f7294e1e46da}, ! Handle
  Component Data 1,                       ! Name
  {137f1827-12fd-4fc6-a9a9-249a80b6c989}, ! UUID
  {94dc76e0-0b32-4b94-9b31-8fce4e9dee9a}, ! Version UUID
  1366310277,                             ! Creation Timestamp
  1366310277,                             ! Version Timestamp
  {a8518d9c-cba3-432b-8979-74f5a4d96f44}; ! Name of Object 1

