
OS:Version,
  {398f268e-3607-40d7-be1d-a03bf2e5194e}, ! Handle
  0.9.3;                                  ! Version Identifier

OS:SizingPeriod:DesignDay,
  {fc975ac2-e7a6-4ef5-81fe-df6a1cc952e6}, ! Handle
  Stockton Metropolitan Arpt Ann Clg 1% Condns Enth=>MDB, ! Name
  34.7,                                   ! Maximum Dry-Bulb Temperature {C}
  17.5,                                   ! Daily Dry-Bulb Temperature Range {deltaC}
  62900,                                  ! Humidity Indicating Conditions at Maximum Dry-Bulb {BasedOnField A3}
  101241,                                 ! Barometric Pressure {Pa}
  4.5,                                    ! Wind Speed {m/s}
  310,                                    ! Wind Direction {deg}
  0,                                      ! Sky Clearness
  0,                                      ! Rain Indicator
  0,                                      ! Snow Indicator
  21,                                     ! Day of Month
  7,                                      ! Month
  SummerDesignDay,                        ! Day Type
  0,                                      ! Daylight Saving Time Indicator
  Enthalpy,                               ! Humidity Indicating Type
  ,                                       ! Humidity Indicating Day Schedule Name
  DefaultMultipliers,                     ! Dry-Bulb Temperature Range Modifier Type
  ,                                       ! Dry-Bulb Temperature Range Modifier Schedule Name
  ASHRAETau,                              ! Solar Model Indicator
  ,                                       ! Beam Solar Day Schedule Name
  ,                                       ! Diffuse Solar Day Schedule Name
  0.391,                                  ! ASHRAE Taub {dimensionless}
  2.312;                                  ! ASHRAE Taud {dimensionless}

OS:ComponentData,
  {176f506a-6f2c-497b-908d-79949d96042d}, ! Handle
  Component Data 1,                       ! Name
  {11dfb424-91ce-4dba-b7b3-1527355f2771}, ! UUID
  {c924afb3-e740-4a87-b3b1-f9775aec91b2}, ! Version UUID
  1366306623,                             ! Creation Timestamp
  1366306623,                             ! Version Timestamp
  {fc975ac2-e7a6-4ef5-81fe-df6a1cc952e6}; ! Name of Object 1

