
OS:Version,
  {2f0ca9f7-05b2-4471-866d-81a2d7fd2329}, ! Handle
  0.9.3;                                  ! Version Identifier

OS:SizingPeriod:DesignDay,
  {947ae8b3-9c54-4234-9cf3-a4024085dfd0}, ! Handle
  Marathon Airport Ann Htg Wind 99% Condns WS=>MCDB, ! Name
  17.8,                                   ! Maximum Dry-Bulb Temperature {C}
  0,                                      ! Daily Dry-Bulb Temperature Range {deltaC}
  17.8,                                   ! Humidity Indicating Conditions at Maximum Dry-Bulb {BasedOnField A3}
  101301,                                 ! Barometric Pressure {Pa}
  8.9,                                    ! Wind Speed {m/s}
  0,                                      ! Wind Direction {deg}
  0,                                      ! Sky Clearness
  0,                                      ! Rain Indicator
  0,                                      ! Snow Indicator
  21,                                     ! Day of Month
  1,                                      ! Month
  WinterDesignDay,                        ! Day Type
  0,                                      ! Daylight Saving Time Indicator
  Wetbulb,                                ! Humidity Indicating Type
  ,                                       ! Humidity Indicating Day Schedule Name
  DefaultMultipliers,                     ! Dry-Bulb Temperature Range Modifier Type
  ,                                       ! Dry-Bulb Temperature Range Modifier Schedule Name
  ASHRAEClearSky;                         ! Solar Model Indicator

OS:ComponentData,
  {00d36a52-e65f-4b4b-a31c-1feabafd72c0}, ! Handle
  Component Data 1,                       ! Name
  {c995fbb5-8a92-432e-a6f9-5dca2cfe4f92}, ! UUID
  {18c8c959-193e-4fe6-82a4-af0e9dbe2597}, ! Version UUID
  1366306846,                             ! Creation Timestamp
  1366306846,                             ! Version Timestamp
  {947ae8b3-9c54-4234-9cf3-a4024085dfd0}; ! Name of Object 1

