
OS:Version,
  {f188f154-b4ef-44c4-99d0-8d29cb308e52}, ! Handle
  0.9.3;                                  ! Version Identifier

OS:SizingPeriod:DesignDay,
  {48c84fa5-8a1d-424e-9589-efb551c57bb4}, ! Handle
  Tampa/Int'l Airport Ann Htg 99.6% Condns DB, ! Name
  3.6,                                    ! Maximum Dry-Bulb Temperature {C}
  0,                                      ! Daily Dry-Bulb Temperature Range {deltaC}
  3.6,                                    ! Humidity Indicating Conditions at Maximum Dry-Bulb {BasedOnField A3}
  101289,                                 ! Barometric Pressure {Pa}
  2.8,                                    ! Wind Speed {m/s}
  10,                                     ! Wind Direction {deg}
  0,                                      ! Sky Clearness
  0,                                      ! Rain Indicator
  0,                                      ! Snow Indicator
  21,                                     ! Day of Month
  1,                                      ! Month
  WinterDesignDay,                        ! Day Type
  0,                                      ! Daylight Saving Time Indicator
  Wetbulb,                                ! Humidity Indicating Type
  ,                                       ! Humidity Indicating Day Schedule Name
  DefaultMultipliers,                     ! Dry-Bulb Temperature Range Modifier Type
  ,                                       ! Dry-Bulb Temperature Range Modifier Schedule Name
  ASHRAEClearSky;                         ! Solar Model Indicator

OS:ComponentData,
  {899b79fc-7988-4035-b4a9-c2159762e984}, ! Handle
  Component Data 1,                       ! Name
  {32d5aee1-6b7e-4a0c-ae59-b695efd137d8}, ! UUID
  {a30e5a2b-62a7-4cf5-b8a7-e08f8bb18269}, ! Version UUID
  1366306932,                             ! Creation Timestamp
  1366306932,                             ! Version Timestamp
  {48c84fa5-8a1d-424e-9589-efb551c57bb4}; ! Name of Object 1

