
OS:Version,
  {5ed6380d-955d-449b-b261-aa491519af64}, ! Handle
  0.9.3;                                  ! Version Identifier

OS:SizingPeriod:DesignDay,
  {800f7cc5-1541-4151-9d1c-d99b0153753e}, ! Handle
  Marathon Airport Ann Clg 1% Condns DB=>MWB, ! Name
  32.8,                                   ! Maximum Dry-Bulb Temperature {C}
  5.5,                                    ! Daily Dry-Bulb Temperature Range {deltaC}
  26.6,                                   ! Humidity Indicating Conditions at Maximum Dry-Bulb {BasedOnField A3}
  101301,                                 ! Barometric Pressure {Pa}
  3.2,                                    ! Wind Speed {m/s}
  110,                                    ! Wind Direction {deg}
  0,                                      ! Sky Clearness
  0,                                      ! Rain Indicator
  0,                                      ! Snow Indicator
  21,                                     ! Day of Month
  8,                                      ! Month
  SummerDesignDay,                        ! Day Type
  0,                                      ! Daylight Saving Time Indicator
  Wetbulb,                                ! Humidity Indicating Type
  ,                                       ! Humidity Indicating Day Schedule Name
  DefaultMultipliers,                     ! Dry-Bulb Temperature Range Modifier Type
  ,                                       ! Dry-Bulb Temperature Range Modifier Schedule Name
  ASHRAETau,                              ! Solar Model Indicator
  ,                                       ! Beam Solar Day Schedule Name
  ,                                       ! Diffuse Solar Day Schedule Name
  0.467,                                  ! ASHRAE Taub {dimensionless}
  2.161;                                  ! ASHRAE Taud {dimensionless}

OS:ComponentData,
  {ae715970-612e-46f5-93c1-8220f70a839c}, ! Handle
  Component Data 1,                       ! Name
  {81c0bcb6-f4ae-4624-b34e-a3983db48521}, ! UUID
  {6ec88e42-2206-43f0-b857-e9e3f6bc2e00}, ! Version UUID
  1366306846,                             ! Creation Timestamp
  1366306846,                             ! Version Timestamp
  {800f7cc5-1541-4151-9d1c-d99b0153753e}; ! Name of Object 1

