
OS:Version,
  {ee975da5-1fd6-499e-8d56-78658397a9d9}, ! Handle
  0.9.3;                                  ! Version Identifier

OS:SizingPeriod:DesignDay,
  {1b2a2d5b-63fa-4247-bc19-f869c1ff63a4}, ! Handle
  Providence T F Green State Ar Ann Clg 1% Condns WB=>MDB, ! Name
  27.8,                                   ! Maximum Dry-Bulb Temperature {C}
  9.6,                                    ! Daily Dry-Bulb Temperature Range {deltaC}
  23.8,                                   ! Humidity Indicating Conditions at Maximum Dry-Bulb {BasedOnField A3}
  101133,                                 ! Barometric Pressure {Pa}
  5.5,                                    ! Wind Speed {m/s}
  280,                                    ! Wind Direction {deg}
  0,                                      ! Sky Clearness
  0,                                      ! Rain Indicator
  0,                                      ! Snow Indicator
  21,                                     ! Day of Month
  7,                                      ! Month
  SummerDesignDay,                        ! Day Type
  0,                                      ! Daylight Saving Time Indicator
  Wetbulb,                                ! Humidity Indicating Type
  ,                                       ! Humidity Indicating Day Schedule Name
  DefaultMultipliers,                     ! Dry-Bulb Temperature Range Modifier Type
  ,                                       ! Dry-Bulb Temperature Range Modifier Schedule Name
  ASHRAETau,                              ! Solar Model Indicator
  ,                                       ! Beam Solar Day Schedule Name
  ,                                       ! Diffuse Solar Day Schedule Name
  0.507,                                  ! ASHRAE Taub {dimensionless}
  1.885;                                  ! ASHRAE Taud {dimensionless}

OS:ComponentData,
  {b5ddf208-06c2-42b0-8b23-5449bf7b3668}, ! Handle
  Component Data 1,                       ! Name
  {4b998d20-51a1-4d73-9c08-abc0884d3adf}, ! UUID
  {bdb38b19-0a66-416d-9a86-ca241376ab24}, ! Version UUID
  1366310303,                             ! Creation Timestamp
  1366310303,                             ! Version Timestamp
  {1b2a2d5b-63fa-4247-bc19-f869c1ff63a4}; ! Name of Object 1

