
OS:Version,
  {14606236-ab8a-4909-902c-51e0db5922b0}, ! Handle
  0.9.3;                                  ! Version Identifier

OS:SizingPeriod:DesignDay,
  {69372867-86e0-430d-a81b-821c42df1387}, ! Handle
  Stewart Field Ann Htg Wind 99.6% Condns WS=>MCDB, ! Name
  -1.1,                                   ! Maximum Dry-Bulb Temperature {C}
  0,                                      ! Daily Dry-Bulb Temperature Range {deltaC}
  -1.1,                                   ! Humidity Indicating Conditions at Maximum Dry-Bulb {BasedOnField A3}
  99217,                                  ! Barometric Pressure {Pa}
  12.9,                                   ! Wind Speed {m/s}
  290,                                    ! Wind Direction {deg}
  0,                                      ! Sky Clearness
  0,                                      ! Rain Indicator
  0,                                      ! Snow Indicator
  21,                                     ! Day of Month
  1,                                      ! Month
  WinterDesignDay,                        ! Day Type
  0,                                      ! Daylight Saving Time Indicator
  Wetbulb,                                ! Humidity Indicating Type
  ,                                       ! Humidity Indicating Day Schedule Name
  DefaultMultipliers,                     ! Dry-Bulb Temperature Range Modifier Type
  ,                                       ! Dry-Bulb Temperature Range Modifier Schedule Name
  ASHRAEClearSky;                         ! Solar Model Indicator

OS:ComponentData,
  {ee7dbf8d-d71f-4cd3-9cc4-abadce2535cf}, ! Handle
  Component Data 1,                       ! Name
  {b0c30860-1620-454e-aa6f-f6f15c0976ed}, ! UUID
  {891ec563-2497-4267-a6e4-987c860c75c1}, ! Version UUID
  1366309694,                             ! Creation Timestamp
  1366309694,                             ! Version Timestamp
  {69372867-86e0-430d-a81b-821c42df1387}; ! Name of Object 1

