
OS:Version,
  {e79d88f8-c68d-4119-85ea-9fde2661d2c4}, ! Handle
  0.9.3;                                  ! Version Identifier

OS:SizingPeriod:DesignDay,
  {615af996-bc52-43c0-9d63-0b97de278fc6}, ! Handle
  MILWAUKEE Ann Clg .4% Condns Enth=>MDB, ! Name
  30.5,                                   ! Maximum Dry-Bulb Temperature {C}
  8.7,                                    ! Daily Dry-Bulb Temperature Range {deltaC}
  77000,                                  ! Humidity Indicating Conditions at Maximum Dry-Bulb {BasedOnField A3}
  98816,                                  ! Barometric Pressure {Pa}
  6.4,                                    ! Wind Speed {m/s}
  240,                                    ! Wind Direction {deg}
  0,                                      ! Sky Clearness
  0,                                      ! Rain Indicator
  0,                                      ! Snow Indicator
  21,                                     ! Day of Month
  7,                                      ! Month
  SummerDesignDay,                        ! Day Type
  0,                                      ! Daylight Saving Time Indicator
  Enthalpy,                               ! Humidity Indicating Type
  ,                                       ! Humidity Indicating Day Schedule Name
  DefaultMultipliers,                     ! Dry-Bulb Temperature Range Modifier Type
  ,                                       ! Dry-Bulb Temperature Range Modifier Schedule Name
  ASHRAETau,                              ! Solar Model Indicator
  ,                                       ! Beam Solar Day Schedule Name
  ,                                       ! Diffuse Solar Day Schedule Name
  0.452,                                  ! ASHRAE Taub {dimensionless}
  2.061;                                  ! ASHRAE Taud {dimensionless}

OS:ComponentData,
  {0970ca97-0b7b-4bee-9071-715ffbbf4f4d}, ! Handle
  Component Data 1,                       ! Name
  {38d6c6f6-29c6-4873-8d2e-1c4c923e16b0}, ! UUID
  {a2ffb046-e246-446f-aaf5-51b090c71f15}, ! Version UUID
  1366311564,                             ! Creation Timestamp
  1366311564,                             ! Version Timestamp
  {615af996-bc52-43c0-9d63-0b97de278fc6}; ! Name of Object 1

