
OS:Version,
  {89409bd1-23e6-41d8-923c-e55378026d9e}, ! Handle
  0.9.3;                                  ! Version Identifier

OS:SizingPeriod:DesignDay,
  {33931a20-4910-450b-94ee-07c2a504bb18}, ! Handle
  Patterson Memorial Ann Clg 1% Condns Enth=>MDB, ! Name
  31.4,                                   ! Maximum Dry-Bulb Temperature {C}
  8.9,                                    ! Daily Dry-Bulb Temperature Range {deltaC}
  82500,                                  ! Humidity Indicating Conditions at Maximum Dry-Bulb {BasedOnField A3}
  101289,                                 ! Barometric Pressure {Pa}
  3.4,                                    ! Wind Speed {m/s}
  350,                                    ! Wind Direction {deg}
  0,                                      ! Sky Clearness
  0,                                      ! Rain Indicator
  0,                                      ! Snow Indicator
  21,                                     ! Day of Month
  8,                                      ! Month
  SummerDesignDay,                        ! Day Type
  0,                                      ! Daylight Saving Time Indicator
  Enthalpy,                               ! Humidity Indicating Type
  ,                                       ! Humidity Indicating Day Schedule Name
  DefaultMultipliers,                     ! Dry-Bulb Temperature Range Modifier Type
  ,                                       ! Dry-Bulb Temperature Range Modifier Schedule Name
  ASHRAETau,                              ! Solar Model Indicator
  ,                                       ! Beam Solar Day Schedule Name
  ,                                       ! Diffuse Solar Day Schedule Name
  0.54,                                   ! ASHRAE Taub {dimensionless}
  1.85;                                   ! ASHRAE Taud {dimensionless}

OS:ComponentData,
  {8d58262e-dad3-415d-b842-5fb0a18120f1}, ! Handle
  Component Data 1,                       ! Name
  {451b0e58-c335-4081-95b2-21322f966eb7}, ! UUID
  {cb4c6e5f-3e0e-4b2d-984f-2c5adefaea19}, ! Version UUID
  1366307759,                             ! Creation Timestamp
  1366307759,                             ! Version Timestamp
  {33931a20-4910-450b-94ee-07c2a504bb18}; ! Name of Object 1

