
OS:Version,
  {8f53e636-2e6d-4392-8657-8ec32e546b51}, ! Handle
  0.9.3;                                  ! Version Identifier

OS:SizingPeriod:DesignDay,
  {506c64f5-604c-462e-a807-3e3b8abecedc}, ! Handle
  Mccook Municipal Ann Clg 1% Condns DB=>MWB, ! Name
  37,                                     ! Maximum Dry-Bulb Temperature {C}
  14.8,                                   ! Daily Dry-Bulb Temperature Range {deltaC}
  21.5,                                   ! Humidity Indicating Conditions at Maximum Dry-Bulb {BasedOnField A3}
  92232,                                  ! Barometric Pressure {Pa}
  6.2,                                    ! Wind Speed {m/s}
  170,                                    ! Wind Direction {deg}
  0,                                      ! Sky Clearness
  0,                                      ! Rain Indicator
  0,                                      ! Snow Indicator
  21,                                     ! Day of Month
  7,                                      ! Month
  SummerDesignDay,                        ! Day Type
  0,                                      ! Daylight Saving Time Indicator
  Wetbulb,                                ! Humidity Indicating Type
  ,                                       ! Humidity Indicating Day Schedule Name
  DefaultMultipliers,                     ! Dry-Bulb Temperature Range Modifier Type
  ,                                       ! Dry-Bulb Temperature Range Modifier Schedule Name
  ASHRAETau,                              ! Solar Model Indicator
  ,                                       ! Beam Solar Day Schedule Name
  ,                                       ! Diffuse Solar Day Schedule Name
  0.422,                                  ! ASHRAE Taub {dimensionless}
  2.112;                                  ! ASHRAE Taud {dimensionless}

OS:ComponentData,
  {b859a6f7-18ca-4445-b23c-8e71e1b40f1a}, ! Handle
  Component Data 1,                       ! Name
  {bb755ee9-3bae-4060-8904-13f7f9e25921}, ! UUID
  {21cabc98-3afc-4d23-83b4-986bf0b43113}, ! Version UUID
  1366309144,                             ! Creation Timestamp
  1366309144,                             ! Version Timestamp
  {506c64f5-604c-462e-a807-3e3b8abecedc}; ! Name of Object 1

