
OS:Version,
  {8ba1d6c8-7242-41f3-b554-6286f2e54c92}, ! Handle
  0.9.3;                                  ! Version Identifier

OS:SizingPeriod:DesignDay,
  {3c962134-6012-4bf2-9eb1-290877c6152c}, ! Handle
  SHERIDAN Ann Clg .4% Condns DB=>MWB,    ! Name
  35.3,                                   ! Maximum Dry-Bulb Temperature {C}
  17.2,                                   ! Daily Dry-Bulb Temperature Range {deltaC}
  17.7,                                   ! Humidity Indicating Conditions at Maximum Dry-Bulb {BasedOnField A3}
  87619,                                  ! Barometric Pressure {Pa}
  3.7,                                    ! Wind Speed {m/s}
  310,                                    ! Wind Direction {deg}
  0,                                      ! Sky Clearness
  0,                                      ! Rain Indicator
  0,                                      ! Snow Indicator
  21,                                     ! Day of Month
  7,                                      ! Month
  SummerDesignDay,                        ! Day Type
  0,                                      ! Daylight Saving Time Indicator
  Wetbulb,                                ! Humidity Indicating Type
  ,                                       ! Humidity Indicating Day Schedule Name
  DefaultMultipliers,                     ! Dry-Bulb Temperature Range Modifier Type
  ,                                       ! Dry-Bulb Temperature Range Modifier Schedule Name
  ASHRAETau,                              ! Solar Model Indicator
  ,                                       ! Beam Solar Day Schedule Name
  ,                                       ! Diffuse Solar Day Schedule Name
  0.407,                                  ! ASHRAE Taub {dimensionless}
  2.098;                                  ! ASHRAE Taud {dimensionless}

OS:ComponentData,
  {b0e0be15-71f0-4feb-8274-ad01d790ad29}, ! Handle
  Component Data 1,                       ! Name
  {37e29ada-6a42-441a-be1d-248249dfef09}, ! UUID
  {fa0b670f-4b4c-40f3-b5a1-bb31befff07e}, ! Version UUID
  1366311775,                             ! Creation Timestamp
  1366311775,                             ! Version Timestamp
  {3c962134-6012-4bf2-9eb1-290877c6152c}; ! Name of Object 1

