
OS:Version,
  {713bceec-25ca-46fb-a673-e5d2bd557606}, ! Handle
  0.9.3;                                  ! Version Identifier

OS:SizingPeriod:DesignDay,
  {b01e7b71-cc9a-4024-b4a5-c312c398dee1}, ! Handle
  Raleigh Durham International Ann Clg .4% Condns DB=>MWB, ! Name
  34.5,                                   ! Maximum Dry-Bulb Temperature {C}
  10.5,                                   ! Daily Dry-Bulb Temperature Range {deltaC}
  24.4,                                   ! Humidity Indicating Conditions at Maximum Dry-Bulb {BasedOnField A3}
  99809,                                  ! Barometric Pressure {Pa}
  4,                                      ! Wind Speed {m/s}
  240,                                    ! Wind Direction {deg}
  0,                                      ! Sky Clearness
  0,                                      ! Rain Indicator
  0,                                      ! Snow Indicator
  21,                                     ! Day of Month
  7,                                      ! Month
  SummerDesignDay,                        ! Day Type
  0,                                      ! Daylight Saving Time Indicator
  Wetbulb,                                ! Humidity Indicating Type
  ,                                       ! Humidity Indicating Day Schedule Name
  DefaultMultipliers,                     ! Dry-Bulb Temperature Range Modifier Type
  ,                                       ! Dry-Bulb Temperature Range Modifier Schedule Name
  ASHRAETau,                              ! Solar Model Indicator
  ,                                       ! Beam Solar Day Schedule Name
  ,                                       ! Diffuse Solar Day Schedule Name
  0.577,                                  ! ASHRAE Taub {dimensionless}
  1.722;                                  ! ASHRAE Taud {dimensionless}

OS:ComponentData,
  {845607e8-a7cd-4fbd-a631-c07dd47d70ee}, ! Handle
  Component Data 1,                       ! Name
  {4785a843-c1a3-4af2-88ed-3fb39941442b}, ! UUID
  {415f1f84-f5b6-46a0-96b0-cef15cf48ed9}, ! Version UUID
  1366308973,                             ! Creation Timestamp
  1366308973,                             ! Version Timestamp
  {b01e7b71-cc9a-4024-b4a5-c312c398dee1}; ! Name of Object 1

