
OS:Version,
  {2352f442-1ea9-4b10-b763-d44dd18e095f}, ! Handle
  0.9.3;                                  ! Version Identifier

OS:SizingPeriod:DesignDay,
  {791ed286-3330-4260-adf0-09596a477d5c}, ! Handle
  MANSFIELD Ann Hum_n 99% Condns DP=>MCDB, ! Name
  -13.5,                                  ! Maximum Dry-Bulb Temperature {C}
  0,                                      ! Daily Dry-Bulb Temperature Range {deltaC}
  -18.2,                                  ! Humidity Indicating Conditions at Maximum Dry-Bulb {BasedOnField A3}
  96669,                                  ! Barometric Pressure {Pa}
  4.9,                                    ! Wind Speed {m/s}
  250,                                    ! Wind Direction {deg}
  0,                                      ! Sky Clearness
  0,                                      ! Rain Indicator
  0,                                      ! Snow Indicator
  21,                                     ! Day of Month
  1,                                      ! Month
  WinterDesignDay,                        ! Day Type
  0,                                      ! Daylight Saving Time Indicator
  Dewpoint,                               ! Humidity Indicating Type
  ,                                       ! Humidity Indicating Day Schedule Name
  DefaultMultipliers,                     ! Dry-Bulb Temperature Range Modifier Type
  ,                                       ! Dry-Bulb Temperature Range Modifier Schedule Name
  ASHRAEClearSky;                         ! Solar Model Indicator

OS:ComponentData,
  {d7260fe0-73df-4568-b36f-851ac35fcc3e}, ! Handle
  Component Data 1,                       ! Name
  {50c997ee-5b21-4fa2-a326-7c954b1e6bf7}, ! UUID
  {e45d3e58-5990-4e0a-8fc1-34b20d2eee66}, ! Version UUID
  1366309835,                             ! Creation Timestamp
  1366309835,                             ! Version Timestamp
  {791ed286-3330-4260-adf0-09596a477d5c}; ! Name of Object 1

