
OS:Version,
  {e91e1395-8a2f-470b-a596-76c6dfae2c4d}, ! Handle
  0.9.3;                                  ! Version Identifier

OS:SizingPeriod:DesignDay,
  {21227952-f231-4f1c-995a-d40cb6c75edf}, ! Handle
  YOUNGSTOWN Ann Htg Wind 99.6% Condns WS=>MCDB, ! Name
  -4.5,                                   ! Maximum Dry-Bulb Temperature {C}
  0,                                      ! Daily Dry-Bulb Temperature Range {deltaC}
  -4.5,                                   ! Humidity Indicating Conditions at Maximum Dry-Bulb {BasedOnField A3}
  97063,                                  ! Barometric Pressure {Pa}
  11.8,                                   ! Wind Speed {m/s}
  260,                                    ! Wind Direction {deg}
  0,                                      ! Sky Clearness
  0,                                      ! Rain Indicator
  0,                                      ! Snow Indicator
  21,                                     ! Day of Month
  1,                                      ! Month
  WinterDesignDay,                        ! Day Type
  0,                                      ! Daylight Saving Time Indicator
  Wetbulb,                                ! Humidity Indicating Type
  ,                                       ! Humidity Indicating Day Schedule Name
  DefaultMultipliers,                     ! Dry-Bulb Temperature Range Modifier Type
  ,                                       ! Dry-Bulb Temperature Range Modifier Schedule Name
  ASHRAEClearSky;                         ! Solar Model Indicator

OS:ComponentData,
  {4c352544-2cd2-4e6f-83f7-e16ef658662a}, ! Handle
  Component Data 1,                       ! Name
  {b6d46656-3822-44e5-94d8-54da5c2b4b60}, ! UUID
  {462ba586-7c62-48c1-b0bf-62b957bae85d}, ! Version UUID
  1366309859,                             ! Creation Timestamp
  1366309859,                             ! Version Timestamp
  {21227952-f231-4f1c-995a-d40cb6c75edf}; ! Name of Object 1

