
OS:Version,
  {7169e7ac-cd89-4159-bb7a-ba2eac2bcfea}, ! Handle
  0.9.3;                                  ! Version Identifier

OS:SizingPeriod:DesignDay,
  {c313df5a-352e-44f5-a5a7-4280edf0dfaf}, ! Handle
  MILES_CITY Ann Clg 2% Condns Enth=>MDB, ! Name
  29.5,                                   ! Maximum Dry-Bulb Temperature {C}
  14.9,                                   ! Daily Dry-Bulb Temperature Range {deltaC}
  57300,                                  ! Humidity Indicating Conditions at Maximum Dry-Bulb {BasedOnField A3}
  92043,                                  ! Barometric Pressure {Pa}
  4.7,                                    ! Wind Speed {m/s}
  140,                                    ! Wind Direction {deg}
  0,                                      ! Sky Clearness
  0,                                      ! Rain Indicator
  0,                                      ! Snow Indicator
  21,                                     ! Day of Month
  7,                                      ! Month
  SummerDesignDay,                        ! Day Type
  0,                                      ! Daylight Saving Time Indicator
  Enthalpy,                               ! Humidity Indicating Type
  ,                                       ! Humidity Indicating Day Schedule Name
  DefaultMultipliers,                     ! Dry-Bulb Temperature Range Modifier Type
  ,                                       ! Dry-Bulb Temperature Range Modifier Schedule Name
  ASHRAETau,                              ! Solar Model Indicator
  ,                                       ! Beam Solar Day Schedule Name
  ,                                       ! Diffuse Solar Day Schedule Name
  0.418,                                  ! ASHRAE Taub {dimensionless}
  2.061;                                  ! ASHRAE Taud {dimensionless}

OS:ComponentData,
  {075a0e90-dd5c-4858-967a-9e4ed3376a61}, ! Handle
  Component Data 1,                       ! Name
  {89cd62d5-14e0-4bd8-ab51-05a5f7c399aa}, ! UUID
  {739565ae-9b4c-4e0d-b755-bb0a4f60203c}, ! Version UUID
  1366308829,                             ! Creation Timestamp
  1366308829,                             ! Version Timestamp
  {c313df5a-352e-44f5-a5a7-4280edf0dfaf}; ! Name of Object 1

