
OS:Version,
  {79d29599-0d0c-4682-9e98-283a4385b045}, ! Handle
  0.9.3;                                  ! Version Identifier

OS:SizingPeriod:DesignDay,
  {e0552b88-b15f-4524-b4fe-b5d3f2d4ed17}, ! Handle
  Milwaukee Mitchell Intl Ap Ann Clg 1% Condns Enth=>MDB, ! Name
  28.5,                                   ! Maximum Dry-Bulb Temperature {C}
  8.7,                                    ! Daily Dry-Bulb Temperature Range {deltaC}
  72600,                                  ! Humidity Indicating Conditions at Maximum Dry-Bulb {BasedOnField A3}
  98886,                                  ! Barometric Pressure {Pa}
  6.4,                                    ! Wind Speed {m/s}
  240,                                    ! Wind Direction {deg}
  0,                                      ! Sky Clearness
  0,                                      ! Rain Indicator
  0,                                      ! Snow Indicator
  21,                                     ! Day of Month
  7,                                      ! Month
  SummerDesignDay,                        ! Day Type
  0,                                      ! Daylight Saving Time Indicator
  Enthalpy,                               ! Humidity Indicating Type
  ,                                       ! Humidity Indicating Day Schedule Name
  DefaultMultipliers,                     ! Dry-Bulb Temperature Range Modifier Type
  ,                                       ! Dry-Bulb Temperature Range Modifier Schedule Name
  ASHRAETau,                              ! Solar Model Indicator
  ,                                       ! Beam Solar Day Schedule Name
  ,                                       ! Diffuse Solar Day Schedule Name
  0.452,                                  ! ASHRAE Taub {dimensionless}
  2.061;                                  ! ASHRAE Taud {dimensionless}

OS:ComponentData,
  {a2c7732e-943e-499b-9f73-dd7c36cf0b1a}, ! Handle
  Component Data 1,                       ! Name
  {5f6b63e7-152b-40e2-b7cb-a552bc186dd7}, ! UUID
  {dc09dae8-840d-4c29-8eac-575fb4466145}, ! Version UUID
  1366311558,                             ! Creation Timestamp
  1366311558,                             ! Version Timestamp
  {e0552b88-b15f-4524-b4fe-b5d3f2d4ed17}; ! Name of Object 1

