
OS:Version,
  {206d4e9f-4b11-47f9-998a-38fc440977b8}, ! Handle
  0.9.3;                                  ! Version Identifier

OS:SizingPeriod:DesignDay,
  {9a77025d-0c57-4094-86fd-634555db51d1}, ! Handle
  New Orleans Lakefront Ap Ann Clg .4% Condns Enth=>MDB, ! Name
  32,                                     ! Maximum Dry-Bulb Temperature {C}
  6.6,                                    ! Daily Dry-Bulb Temperature Range {deltaC}
  86600,                                  ! Humidity Indicating Conditions at Maximum Dry-Bulb {BasedOnField A3}
  101289,                                 ! Barometric Pressure {Pa}
  3.8,                                    ! Wind Speed {m/s}
  320,                                    ! Wind Direction {deg}
  0,                                      ! Sky Clearness
  0,                                      ! Rain Indicator
  0,                                      ! Snow Indicator
  21,                                     ! Day of Month
  8,                                      ! Month
  SummerDesignDay,                        ! Day Type
  0,                                      ! Daylight Saving Time Indicator
  Enthalpy,                               ! Humidity Indicating Type
  ,                                       ! Humidity Indicating Day Schedule Name
  DefaultMultipliers,                     ! Dry-Bulb Temperature Range Modifier Type
  ,                                       ! Dry-Bulb Temperature Range Modifier Schedule Name
  ASHRAETau,                              ! Solar Model Indicator
  ,                                       ! Beam Solar Day Schedule Name
  ,                                       ! Diffuse Solar Day Schedule Name
  0.551,                                  ! ASHRAE Taub {dimensionless}
  1.829;                                  ! ASHRAE Taud {dimensionless}

OS:ComponentData,
  {23dfc92e-00ff-4bd4-8f0a-5b2b46ef63f3}, ! Handle
  Component Data 1,                       ! Name
  {10ab1c4e-00cf-402a-badb-05aebc573589}, ! UUID
  {5e6ddeac-fea0-43a1-8a0e-4735a4f90f68}, ! Version UUID
  1366307745,                             ! Creation Timestamp
  1366307745,                             ! Version Timestamp
  {9a77025d-0c57-4094-86fd-634555db51d1}; ! Name of Object 1

