
OS:Version,
  {5acf3ce8-318c-4c57-aedb-9e53f7e9744b}, ! Handle
  0.9.3;                                  ! Version Identifier

OS:SizingPeriod:DesignDay,
  {c33d5b7d-ba3d-4bb3-a9ba-8bec12a8f4a6}, ! Handle
  Meridian Naas Ann Clg 1% Condns DB=>MWB, ! Name
  35,                                     ! Maximum Dry-Bulb Temperature {C}
  11.7,                                   ! Daily Dry-Bulb Temperature Range {deltaC}
  24.8,                                   ! Humidity Indicating Conditions at Maximum Dry-Bulb {BasedOnField A3}
  100332,                                 ! Barometric Pressure {Pa}
  2,                                      ! Wind Speed {m/s}
  270,                                    ! Wind Direction {deg}
  0,                                      ! Sky Clearness
  0,                                      ! Rain Indicator
  0,                                      ! Snow Indicator
  21,                                     ! Day of Month
  7,                                      ! Month
  SummerDesignDay,                        ! Day Type
  0,                                      ! Daylight Saving Time Indicator
  Wetbulb,                                ! Humidity Indicating Type
  ,                                       ! Humidity Indicating Day Schedule Name
  DefaultMultipliers,                     ! Dry-Bulb Temperature Range Modifier Type
  ,                                       ! Dry-Bulb Temperature Range Modifier Schedule Name
  ASHRAETau,                              ! Solar Model Indicator
  ,                                       ! Beam Solar Day Schedule Name
  ,                                       ! Diffuse Solar Day Schedule Name
  0.555,                                  ! ASHRAE Taub {dimensionless}
  1.808;                                  ! ASHRAE Taud {dimensionless}

OS:ComponentData,
  {c53fb2a9-ac2a-40b3-81c0-f5364f0df8f7}, ! Handle
  Component Data 1,                       ! Name
  {31f15d9e-846e-41f4-b804-e015290c4ca9}, ! UUID
  {48fec075-089d-469c-b618-1616ea5eca9e}, ! Version UUID
  1366308679,                             ! Creation Timestamp
  1366308679,                             ! Version Timestamp
  {c33d5b7d-ba3d-4bb3-a9ba-8bec12a8f4a6}; ! Name of Object 1

