
OS:Version,
  {8ba26086-6272-475f-ba83-13c3809dd5df}, ! Handle
  0.9.3;                                  ! Version Identifier

OS:SizingPeriod:DesignDay,
  {727ef512-eb2a-4b08-b1f9-33f42e1178b6}, ! Handle
  Patterson Memorial Ann Clg 1% Condns DP=>MDB, ! Name
  29.2,                                   ! Maximum Dry-Bulb Temperature {C}
  8.9,                                    ! Daily Dry-Bulb Temperature Range {deltaC}
  25.2,                                   ! Humidity Indicating Conditions at Maximum Dry-Bulb {BasedOnField A3}
  101289,                                 ! Barometric Pressure {Pa}
  3.4,                                    ! Wind Speed {m/s}
  350,                                    ! Wind Direction {deg}
  0,                                      ! Sky Clearness
  0,                                      ! Rain Indicator
  0,                                      ! Snow Indicator
  21,                                     ! Day of Month
  8,                                      ! Month
  SummerDesignDay,                        ! Day Type
  0,                                      ! Daylight Saving Time Indicator
  Dewpoint,                               ! Humidity Indicating Type
  ,                                       ! Humidity Indicating Day Schedule Name
  DefaultMultipliers,                     ! Dry-Bulb Temperature Range Modifier Type
  ,                                       ! Dry-Bulb Temperature Range Modifier Schedule Name
  ASHRAETau,                              ! Solar Model Indicator
  ,                                       ! Beam Solar Day Schedule Name
  ,                                       ! Diffuse Solar Day Schedule Name
  0.54,                                   ! ASHRAE Taub {dimensionless}
  1.85;                                   ! ASHRAE Taud {dimensionless}

OS:ComponentData,
  {d8a16e03-0a41-4272-a3f7-89f29e54b59b}, ! Handle
  Component Data 1,                       ! Name
  {b1005017-cfea-4f98-842f-f257f8e8477e}, ! UUID
  {f92f8d39-8cd2-4054-ab5e-4eee4d46c8f1}, ! Version UUID
  1366307759,                             ! Creation Timestamp
  1366307759,                             ! Version Timestamp
  {727ef512-eb2a-4b08-b1f9-33f42e1178b6}; ! Name of Object 1

