
OS:Version,
  {a7b7f2dd-7c68-430b-8efd-89f207253d1f}, ! Handle
  0.9.3;                                  ! Version Identifier

OS:SizingPeriod:DesignDay,
  {12118a4a-b94f-4e71-b6c6-e22432859a70}, ! Handle
  Mcguire Afb Ann Clg .4% Condns DP=>MDB, ! Name
  28.5,                                   ! Maximum Dry-Bulb Temperature {C}
  10.6,                                   ! Daily Dry-Bulb Temperature Range {deltaC}
  24.7,                                   ! Humidity Indicating Conditions at Maximum Dry-Bulb {BasedOnField A3}
  100786,                                 ! Barometric Pressure {Pa}
  4,                                      ! Wind Speed {m/s}
  240,                                    ! Wind Direction {deg}
  0,                                      ! Sky Clearness
  0,                                      ! Rain Indicator
  0,                                      ! Snow Indicator
  21,                                     ! Day of Month
  7,                                      ! Month
  SummerDesignDay,                        ! Day Type
  0,                                      ! Daylight Saving Time Indicator
  Dewpoint,                               ! Humidity Indicating Type
  ,                                       ! Humidity Indicating Day Schedule Name
  DefaultMultipliers,                     ! Dry-Bulb Temperature Range Modifier Type
  ,                                       ! Dry-Bulb Temperature Range Modifier Schedule Name
  ASHRAETau,                              ! Solar Model Indicator
  ,                                       ! Beam Solar Day Schedule Name
  ,                                       ! Diffuse Solar Day Schedule Name
  0.539,                                  ! ASHRAE Taub {dimensionless}
  1.807;                                  ! ASHRAE Taud {dimensionless}

OS:ComponentData,
  {458698d4-f267-4684-a427-6615c5e66a5d}, ! Handle
  Component Data 1,                       ! Name
  {995f0a5e-7e9d-4913-b4e7-7e74e64a6568}, ! UUID
  {f33b432b-2e1a-48ee-a4c5-bbb250eedfe3}, ! Version UUID
  1366309313,                             ! Creation Timestamp
  1366309313,                             ! Version Timestamp
  {12118a4a-b94f-4e71-b6c6-e22432859a70}; ! Name of Object 1

