
OS:Version,
  {ea86393d-bab9-47db-8b1e-ba9b70bd4cc8}, ! Handle
  0.9.3;                                  ! Version Identifier

OS:SizingPeriod:DesignDay,
  {434802ac-ff9c-4fea-8a4c-e5f8b2d66d80}, ! Handle
  Mitchell  Awos Ann Clg .4% Condns DB=>MWB, ! Name
  34.1,                                   ! Maximum Dry-Bulb Temperature {C}
  12,                                     ! Daily Dry-Bulb Temperature Range {deltaC}
  23.3,                                   ! Humidity Indicating Conditions at Maximum Dry-Bulb {BasedOnField A3}
  96646,                                  ! Barometric Pressure {Pa}
  6,                                      ! Wind Speed {m/s}
  170,                                    ! Wind Direction {deg}
  0,                                      ! Sky Clearness
  0,                                      ! Rain Indicator
  0,                                      ! Snow Indicator
  21,                                     ! Day of Month
  7,                                      ! Month
  SummerDesignDay,                        ! Day Type
  0,                                      ! Daylight Saving Time Indicator
  Wetbulb,                                ! Humidity Indicating Type
  ,                                       ! Humidity Indicating Day Schedule Name
  DefaultMultipliers,                     ! Dry-Bulb Temperature Range Modifier Type
  ,                                       ! Dry-Bulb Temperature Range Modifier Schedule Name
  ASHRAETau,                              ! Solar Model Indicator
  ,                                       ! Beam Solar Day Schedule Name
  ,                                       ! Diffuse Solar Day Schedule Name
  0.397,                                  ! ASHRAE Taub {dimensionless}
  2.269;                                  ! ASHRAE Taud {dimensionless}

OS:ComponentData,
  {d9440b24-1886-40d9-8af8-2a2438b8d74a}, ! Handle
  Component Data 1,                       ! Name
  {1bd198d3-3082-4347-a959-164d255ae13c}, ! UUID
  {52defc2a-fe94-44a2-b2fc-d98c29bdda90}, ! Version UUID
  1366310412,                             ! Creation Timestamp
  1366310412,                             ! Version Timestamp
  {434802ac-ff9c-4fea-8a4c-e5f8b2d66d80}; ! Name of Object 1

