
OS:Version,
  {4511c6c3-80a3-40d4-8511-9c167319c567}, ! Handle
  0.9.3;                                  ! Version Identifier

OS:SizingPeriod:DesignDay,
  {66cecdbf-9bb5-4a95-b04d-ff19d52a2dc9}, ! Handle
  Mount Clemens Selfridge Fld Ann Clg 2% Condns DP=>MDB, ! Name
  25.7,                                   ! Maximum Dry-Bulb Temperature {C}
  11,                                     ! Daily Dry-Bulb Temperature Range {deltaC}
  21.4,                                   ! Humidity Indicating Conditions at Maximum Dry-Bulb {BasedOnField A3}
  99217,                                  ! Barometric Pressure {Pa}
  4.4,                                    ! Wind Speed {m/s}
  160,                                    ! Wind Direction {deg}
  0,                                      ! Sky Clearness
  0,                                      ! Rain Indicator
  0,                                      ! Snow Indicator
  21,                                     ! Day of Month
  7,                                      ! Month
  SummerDesignDay,                        ! Day Type
  0,                                      ! Daylight Saving Time Indicator
  Dewpoint,                               ! Humidity Indicating Type
  ,                                       ! Humidity Indicating Day Schedule Name
  DefaultMultipliers,                     ! Dry-Bulb Temperature Range Modifier Type
  ,                                       ! Dry-Bulb Temperature Range Modifier Schedule Name
  ASHRAETau,                              ! Solar Model Indicator
  ,                                       ! Beam Solar Day Schedule Name
  ,                                       ! Diffuse Solar Day Schedule Name
  0.482,                                  ! ASHRAE Taub {dimensionless}
  1.934;                                  ! ASHRAE Taud {dimensionless}

OS:ComponentData,
  {44e1a2e9-2f6b-4768-8662-962b125d38ba}, ! Handle
  Component Data 1,                       ! Name
  {265e9b50-4379-4c96-b45d-65ad5f703642}, ! UUID
  {f53542ef-1ccb-4632-8365-bdf9e3c88c1e}, ! Version UUID
  1366308069,                             ! Creation Timestamp
  1366308069,                             ! Version Timestamp
  {66cecdbf-9bb5-4a95-b04d-ff19d52a2dc9}; ! Name of Object 1

