
OS:Version,
  {df478f4e-0135-4ea0-9400-3a7a8461a142}, ! Handle
  0.9.3;                                  ! Version Identifier

OS:SizingPeriod:DesignDay,
  {60ad4ad9-04a3-4758-80fe-5067dcc98f1c}, ! Handle
  Wenatchee Pangborn Ann Hum_n 99.6% Condns DP=>MCDB, ! Name
  -12.8,                                  ! Maximum Dry-Bulb Temperature {C}
  0,                                      ! Daily Dry-Bulb Temperature Range {deltaC}
  -17.6,                                  ! Humidity Indicating Conditions at Maximum Dry-Bulb {BasedOnField A3}
  96854,                                  ! Barometric Pressure {Pa}
  1.4,                                    ! Wind Speed {m/s}
  280,                                    ! Wind Direction {deg}
  0,                                      ! Sky Clearness
  0,                                      ! Rain Indicator
  0,                                      ! Snow Indicator
  21,                                     ! Day of Month
  12,                                     ! Month
  WinterDesignDay,                        ! Day Type
  0,                                      ! Daylight Saving Time Indicator
  Dewpoint,                               ! Humidity Indicating Type
  ,                                       ! Humidity Indicating Day Schedule Name
  DefaultMultipliers,                     ! Dry-Bulb Temperature Range Modifier Type
  ,                                       ! Dry-Bulb Temperature Range Modifier Schedule Name
  ASHRAEClearSky;                         ! Solar Model Indicator

OS:ComponentData,
  {ab5883b3-97c0-4f05-911b-66e94e273f67}, ! Handle
  Component Data 1,                       ! Name
  {c00858e6-b4f4-42a7-8c62-3db968d2119b}, ! UUID
  {9cf2894f-1be5-4400-b732-00c300c9d819}, ! Version UUID
  1366311425,                             ! Creation Timestamp
  1366311425,                             ! Version Timestamp
  {60ad4ad9-04a3-4758-80fe-5067dcc98f1c}; ! Name of Object 1

