
OS:Version,
  {e7ebd7ca-3c5a-4f1b-9be2-7c7494333335}, ! Handle
  0.9.3;                                  ! Version Identifier

OS:SizingPeriod:DesignDay,
  {ae567f8a-f716-4231-af04-c16520465939}, ! Handle
  Omaha Wsfo Ann Hum_n 99.6% Condns DP=>MCDB, ! Name
  -21.6,                                  ! Maximum Dry-Bulb Temperature {C}
  0,                                      ! Daily Dry-Bulb Temperature Range {deltaC}
  -28.4,                                  ! Humidity Indicating Conditions at Maximum Dry-Bulb {BasedOnField A3}
  96623,                                  ! Barometric Pressure {Pa}
  4.8,                                    ! Wind Speed {m/s}
  310,                                    ! Wind Direction {deg}
  0,                                      ! Sky Clearness
  0,                                      ! Rain Indicator
  0,                                      ! Snow Indicator
  21,                                     ! Day of Month
  12,                                     ! Month
  WinterDesignDay,                        ! Day Type
  0,                                      ! Daylight Saving Time Indicator
  Dewpoint,                               ! Humidity Indicating Type
  ,                                       ! Humidity Indicating Day Schedule Name
  DefaultMultipliers,                     ! Dry-Bulb Temperature Range Modifier Type
  ,                                       ! Dry-Bulb Temperature Range Modifier Schedule Name
  ASHRAEClearSky;                         ! Solar Model Indicator

OS:ComponentData,
  {35ed3e93-0d10-4163-9240-6e8ccbec035f}, ! Handle
  Component Data 1,                       ! Name
  {9263fcc2-f771-4630-8b30-a6af1a962cae}, ! UUID
  {f78d0cb1-608c-43f0-aca3-2ef8302518fd}, ! Version UUID
  1366309180,                             ! Creation Timestamp
  1366309180,                             ! Version Timestamp
  {ae567f8a-f716-4231-af04-c16520465939}; ! Name of Object 1

