
OS:Version,
  {7957cb4d-b4a4-4f2d-90d7-093088fcd462}, ! Handle
  0.9.3;                                  ! Version Identifier

OS:SizingPeriod:DesignDay,
  {6cfc5efd-234a-45e5-8192-d82066fad6e8}, ! Handle
  Tuscaloosa Municipal Ap Ann Hum_n 99.6% Condns DP=>MCDB, ! Name
  -2.5,                                   ! Maximum Dry-Bulb Temperature {C}
  0,                                      ! Daily Dry-Bulb Temperature Range {deltaC}
  -13.8,                                  ! Humidity Indicating Conditions at Maximum Dry-Bulb {BasedOnField A3}
  100714,                                 ! Barometric Pressure {Pa}
  2.1,                                    ! Wind Speed {m/s}
  340,                                    ! Wind Direction {deg}
  0,                                      ! Sky Clearness
  0,                                      ! Rain Indicator
  0,                                      ! Snow Indicator
  21,                                     ! Day of Month
  1,                                      ! Month
  WinterDesignDay,                        ! Day Type
  0,                                      ! Daylight Saving Time Indicator
  Dewpoint,                               ! Humidity Indicating Type
  ,                                       ! Humidity Indicating Day Schedule Name
  DefaultMultipliers,                     ! Dry-Bulb Temperature Range Modifier Type
  ,                                       ! Dry-Bulb Temperature Range Modifier Schedule Name
  ASHRAEClearSky;                         ! Solar Model Indicator

OS:ComponentData,
  {6034f084-43fc-4b8b-8199-1a9fc25c7681}, ! Handle
  Component Data 1,                       ! Name
  {e15aff0a-dc56-4605-af2a-59aa0ed5c2d1}, ! UUID
  {a6ba97f7-868d-49f8-8dd6-dc1820062368}, ! Version UUID
  1366306020,                             ! Creation Timestamp
  1366306020,                             ! Version Timestamp
  {6cfc5efd-234a-45e5-8192-d82066fad6e8}; ! Name of Object 1

