
OS:Version,
  {3e4211f2-a165-416c-b459-ac467ba387df}, ! Handle
  0.9.3;                                  ! Version Identifier

OS:SizingPeriod:DesignDay,
  {7c59f1e2-6cff-441b-9e33-e9600e9b295e}, ! Handle
  Phoenix/Int'l Airport Ann Clg 1% Condns Enth=>MDB, ! Name
  35.4,                                   ! Maximum Dry-Bulb Temperature {C}
  12,                                     ! Daily Dry-Bulb Temperature Range {deltaC}
  73500,                                  ! Humidity Indicating Conditions at Maximum Dry-Bulb {BasedOnField A3}
  97342,                                  ! Barometric Pressure {Pa}
  4.1,                                    ! Wind Speed {m/s}
  260,                                    ! Wind Direction {deg}
  0,                                      ! Sky Clearness
  0,                                      ! Rain Indicator
  0,                                      ! Snow Indicator
  21,                                     ! Day of Month
  7,                                      ! Month
  SummerDesignDay,                        ! Day Type
  0,                                      ! Daylight Saving Time Indicator
  Enthalpy,                               ! Humidity Indicating Type
  ,                                       ! Humidity Indicating Day Schedule Name
  DefaultMultipliers,                     ! Dry-Bulb Temperature Range Modifier Type
  ,                                       ! Dry-Bulb Temperature Range Modifier Schedule Name
  ASHRAETau,                              ! Solar Model Indicator
  ,                                       ! Beam Solar Day Schedule Name
  ,                                       ! Diffuse Solar Day Schedule Name
  0.588,                                  ! ASHRAE Taub {dimensionless}
  1.653;                                  ! ASHRAE Taud {dimensionless}

OS:ComponentData,
  {c1757f67-537e-43f9-a748-91fd0474d4b4}, ! Handle
  Component Data 1,                       ! Name
  {f293253c-1308-4ca2-b610-43b01f746a57}, ! UUID
  {ce0c90ad-0d81-4b35-adc6-3ef2bccf8fcf}, ! Version UUID
  1366306292,                             ! Creation Timestamp
  1366306292,                             ! Version Timestamp
  {7c59f1e2-6cff-441b-9e33-e9600e9b295e}; ! Name of Object 1

