
OS:Version,
  {61dc0567-dbf1-46f2-8480-50b54ea50a47}, ! Handle
  0.9.3;                                  ! Version Identifier

OS:SizingPeriod:DesignDay,
  {01cbddcc-1ac3-47b2-a17d-191ca43dd5fc}, ! Handle
  Spokane International Ap  Che Ann Clg .4% Condns WB=>MDB, ! Name
  30.5,                                   ! Maximum Dry-Bulb Temperature {C}
  14.6,                                   ! Daily Dry-Bulb Temperature Range {deltaC}
  18.5,                                   ! Humidity Indicating Conditions at Maximum Dry-Bulb {BasedOnField A3}
  92332,                                  ! Barometric Pressure {Pa}
  4.1,                                    ! Wind Speed {m/s}
  240,                                    ! Wind Direction {deg}
  0,                                      ! Sky Clearness
  0,                                      ! Rain Indicator
  0,                                      ! Snow Indicator
  21,                                     ! Day of Month
  7,                                      ! Month
  SummerDesignDay,                        ! Day Type
  0,                                      ! Daylight Saving Time Indicator
  Wetbulb,                                ! Humidity Indicating Type
  ,                                       ! Humidity Indicating Day Schedule Name
  DefaultMultipliers,                     ! Dry-Bulb Temperature Range Modifier Type
  ,                                       ! Dry-Bulb Temperature Range Modifier Schedule Name
  ASHRAETau,                              ! Solar Model Indicator
  ,                                       ! Beam Solar Day Schedule Name
  ,                                       ! Diffuse Solar Day Schedule Name
  0.354,                                  ! ASHRAE Taub {dimensionless}
  2.385;                                  ! ASHRAE Taud {dimensionless}

OS:ComponentData,
  {eef3982a-c077-48d2-9eaf-54aa38b3bf3a}, ! Handle
  Component Data 1,                       ! Name
  {dff209a2-4390-48e9-8005-d0c459c9c66a}, ! UUID
  {b8a1b44e-63ef-4536-9532-f5dc5a6ffcfb}, ! Version UUID
  1366311396,                             ! Creation Timestamp
  1366311396,                             ! Version Timestamp
  {01cbddcc-1ac3-47b2-a17d-191ca43dd5fc}; ! Name of Object 1

