
OS:Version,
  {959830f6-b0bb-4fb7-9f05-b452f616b24d}, ! Handle
  0.9.3;                                  ! Version Identifier

OS:SizingPeriod:DesignDay,
  {7c8e417c-ec6f-44b8-ab9c-479a4e5a594c}, ! Handle
  Mansfield Lahm Municipal Arpt Ann Clg 2% Condns Enth=>MDB, ! Name
  27,                                     ! Maximum Dry-Bulb Temperature {C}
  10.3,                                   ! Daily Dry-Bulb Temperature Range {deltaC}
  68800,                                  ! Humidity Indicating Conditions at Maximum Dry-Bulb {BasedOnField A3}
  96669,                                  ! Barometric Pressure {Pa}
  4.7,                                    ! Wind Speed {m/s}
  230,                                    ! Wind Direction {deg}
  0,                                      ! Sky Clearness
  0,                                      ! Rain Indicator
  0,                                      ! Snow Indicator
  21,                                     ! Day of Month
  7,                                      ! Month
  SummerDesignDay,                        ! Day Type
  0,                                      ! Daylight Saving Time Indicator
  Enthalpy,                               ! Humidity Indicating Type
  ,                                       ! Humidity Indicating Day Schedule Name
  DefaultMultipliers,                     ! Dry-Bulb Temperature Range Modifier Type
  ,                                       ! Dry-Bulb Temperature Range Modifier Schedule Name
  ASHRAETau,                              ! Solar Model Indicator
  ,                                       ! Beam Solar Day Schedule Name
  ,                                       ! Diffuse Solar Day Schedule Name
  0.456,                                  ! ASHRAE Taub {dimensionless}
  2.029;                                  ! ASHRAE Taud {dimensionless}

OS:ComponentData,
  {5d6c5769-32d4-4227-9416-d5084beaabb1}, ! Handle
  Component Data 1,                       ! Name
  {aedea59e-aebe-414e-bcfd-635709aa96a8}, ! UUID
  {e935e1f0-4f88-4267-be58-505b8b41db48}, ! Version UUID
  1366309832,                             ! Creation Timestamp
  1366309832,                             ! Version Timestamp
  {7c8e417c-ec6f-44b8-ab9c-479a4e5a594c}; ! Name of Object 1

