
OS:Version,
  {82035fea-7a5f-4298-82f8-b7b73402dbc2}, ! Handle
  0.9.3;                                  ! Version Identifier

OS:SizingPeriod:DesignDay,
  {7ea2b5d0-f48c-4ade-ab34-b54de270f983}, ! Handle
  Macon Middle Ga Regional Ap Ann Clg .4% Condns DB=>MWB, ! Name
  35.9,                                   ! Maximum Dry-Bulb Temperature {C}
  11.1,                                   ! Daily Dry-Bulb Temperature Range {deltaC}
  24.3,                                   ! Humidity Indicating Conditions at Maximum Dry-Bulb {BasedOnField A3}
  100034,                                 ! Barometric Pressure {Pa}
  3.6,                                    ! Wind Speed {m/s}
  300,                                    ! Wind Direction {deg}
  0,                                      ! Sky Clearness
  0,                                      ! Rain Indicator
  0,                                      ! Snow Indicator
  21,                                     ! Day of Month
  7,                                      ! Month
  SummerDesignDay,                        ! Day Type
  0,                                      ! Daylight Saving Time Indicator
  Wetbulb,                                ! Humidity Indicating Type
  ,                                       ! Humidity Indicating Day Schedule Name
  DefaultMultipliers,                     ! Dry-Bulb Temperature Range Modifier Type
  ,                                       ! Dry-Bulb Temperature Range Modifier Schedule Name
  ASHRAETau,                              ! Solar Model Indicator
  ,                                       ! Beam Solar Day Schedule Name
  ,                                       ! Diffuse Solar Day Schedule Name
  0.549,                                  ! ASHRAE Taub {dimensionless}
  1.812;                                  ! ASHRAE Taud {dimensionless}

OS:ComponentData,
  {55b5c99c-bae0-4440-a5b9-3065682dd641}, ! Handle
  Component Data 1,                       ! Name
  {8da21540-b509-4684-82be-56731557e561}, ! UUID
  {e80bf215-a35f-4a99-a26a-f65df616dbb0}, ! Version UUID
  1366307023,                             ! Creation Timestamp
  1366307023,                             ! Version Timestamp
  {7ea2b5d0-f48c-4ade-ab34-b54de270f983}; ! Name of Object 1

