
OS:Version,
  {6f457c90-22dd-419c-be57-9f45376b4953}, ! Handle
  0.9.3;                                  ! Version Identifier

OS:SizingPeriod:DesignDay,
  {32c72c29-7ebe-4658-9c77-194bb5c1d83c}, ! Handle
  Nome Municipal Arpt Ann Clg 2% Condns WB=>MDB, ! Name
  15.7,                                   ! Maximum Dry-Bulb Temperature {C}
  5.9,                                    ! Daily Dry-Bulb Temperature Range {deltaC}
  12.8,                                   ! Humidity Indicating Conditions at Maximum Dry-Bulb {BasedOnField A3}
  101277,                                 ! Barometric Pressure {Pa}
  4.8,                                    ! Wind Speed {m/s}
  260,                                    ! Wind Direction {deg}
  0,                                      ! Sky Clearness
  0,                                      ! Rain Indicator
  0,                                      ! Snow Indicator
  21,                                     ! Day of Month
  7,                                      ! Month
  SummerDesignDay,                        ! Day Type
  0,                                      ! Daylight Saving Time Indicator
  Wetbulb,                                ! Humidity Indicating Type
  ,                                       ! Humidity Indicating Day Schedule Name
  DefaultMultipliers,                     ! Dry-Bulb Temperature Range Modifier Type
  ,                                       ! Dry-Bulb Temperature Range Modifier Schedule Name
  ASHRAETau,                              ! Solar Model Indicator
  ,                                       ! Beam Solar Day Schedule Name
  ,                                       ! Diffuse Solar Day Schedule Name
  0.408,                                  ! ASHRAE Taub {dimensionless}
  2.08;                                   ! ASHRAE Taud {dimensionless}

OS:ComponentData,
  {282f1f93-40fe-4959-a0f0-5ed1f30d33c9}, ! Handle
  Component Data 1,                       ! Name
  {c6d5ee27-b5c4-4134-9963-23e0426b5b9b}, ! UUID
  {fe4ee87b-17ad-48bc-9f68-9e2a209f503e}, ! Version UUID
  1366305464,                             ! Creation Timestamp
  1366305464,                             ! Version Timestamp
  {32c72c29-7ebe-4658-9c77-194bb5c1d83c}; ! Name of Object 1

