
OS:Version,
  {e3de92e1-f378-4357-83cb-b32dd1471d0d}, ! Handle
  0.9.3;                                  ! Version Identifier

OS:SizingPeriod:DesignDay,
  {a56e8db5-33d5-4030-ab51-017e9c376aeb}, ! Handle
  Mcallen Miller Intl Ap  Edinb Ann Htg 99.6% Condns DB, ! Name
  2.5,                                    ! Maximum Dry-Bulb Temperature {C}
  0,                                      ! Daily Dry-Bulb Temperature Range {deltaC}
  2.5,                                    ! Humidity Indicating Conditions at Maximum Dry-Bulb {BasedOnField A3}
  100965,                                 ! Barometric Pressure {Pa}
  4.5,                                    ! Wind Speed {m/s}
  340,                                    ! Wind Direction {deg}
  0,                                      ! Sky Clearness
  0,                                      ! Rain Indicator
  0,                                      ! Snow Indicator
  21,                                     ! Day of Month
  1,                                      ! Month
  WinterDesignDay,                        ! Day Type
  0,                                      ! Daylight Saving Time Indicator
  Wetbulb,                                ! Humidity Indicating Type
  ,                                       ! Humidity Indicating Day Schedule Name
  DefaultMultipliers,                     ! Dry-Bulb Temperature Range Modifier Type
  ,                                       ! Dry-Bulb Temperature Range Modifier Schedule Name
  ASHRAEClearSky;                         ! Solar Model Indicator

OS:ComponentData,
  {68750bbb-c868-48d2-a79c-a94cb0d4e69f}, ! Handle
  Component Data 1,                       ! Name
  {b8ac5d61-d4ee-4ca3-b437-171fefb2dc5c}, ! UUID
  {9dc989b2-2a52-4895-afdd-684d4f1c700f}, ! Version UUID
  1366310818,                             ! Creation Timestamp
  1366310818,                             ! Version Timestamp
  {a56e8db5-33d5-4030-ab51-017e9c376aeb}; ! Name of Object 1

