
OS:Version,
  {f219e93f-0cb7-4656-96ea-7710d1d5b3c7}, ! Handle
  0.9.3;                                  ! Version Identifier

OS:SizingPeriod:DesignDay,
  {d26a9e4f-d28b-4d55-b924-7604d56cc121}, ! Handle
  SHREVEPORT Ann Hum_n 99.6% Condns DP=>MCDB, ! Name
  -0.6,                                   ! Maximum Dry-Bulb Temperature {C}
  0,                                      ! Daily Dry-Bulb Temperature Range {deltaC}
  -12.6,                                  ! Humidity Indicating Conditions at Maximum Dry-Bulb {BasedOnField A3}
  100380,                                 ! Barometric Pressure {Pa}
  3.4,                                    ! Wind Speed {m/s}
  350,                                    ! Wind Direction {deg}
  0,                                      ! Sky Clearness
  0,                                      ! Rain Indicator
  0,                                      ! Snow Indicator
  21,                                     ! Day of Month
  1,                                      ! Month
  WinterDesignDay,                        ! Day Type
  0,                                      ! Daylight Saving Time Indicator
  Dewpoint,                               ! Humidity Indicating Type
  ,                                       ! Humidity Indicating Day Schedule Name
  DefaultMultipliers,                     ! Dry-Bulb Temperature Range Modifier Type
  ,                                       ! Dry-Bulb Temperature Range Modifier Schedule Name
  ASHRAEClearSky;                         ! Solar Model Indicator

OS:ComponentData,
  {26a4e13c-fe52-4e76-bf68-34d32734767f}, ! Handle
  Component Data 1,                       ! Name
  {de61216f-df32-4b16-8aaf-818ea99340bd}, ! UUID
  {37574e48-3908-4f1a-b7e5-a117b8a274af}, ! Version UUID
  1366307762,                             ! Creation Timestamp
  1366307762,                             ! Version Timestamp
  {d26a9e4f-d28b-4d55-b924-7604d56cc121}; ! Name of Object 1

