
OS:Version,
  {97f307b3-8f2e-4e5c-bbeb-708971b59ff8}, ! Handle
  0.9.3;                                  ! Version Identifier

OS:SizingPeriod:DesignDay,
  {08e12d61-05fc-4204-b260-34ad83742cc7}, ! Handle
  YOUNGSTOWN Ann Clg 1% Condns DP=>MDB,   ! Name
  25.4,                                   ! Maximum Dry-Bulb Temperature {C}
  11.5,                                   ! Daily Dry-Bulb Temperature Range {deltaC}
  21.5,                                   ! Humidity Indicating Conditions at Maximum Dry-Bulb {BasedOnField A3}
  97063,                                  ! Barometric Pressure {Pa}
  4.3,                                    ! Wind Speed {m/s}
  230,                                    ! Wind Direction {deg}
  0,                                      ! Sky Clearness
  0,                                      ! Rain Indicator
  0,                                      ! Snow Indicator
  21,                                     ! Day of Month
  7,                                      ! Month
  SummerDesignDay,                        ! Day Type
  0,                                      ! Daylight Saving Time Indicator
  Dewpoint,                               ! Humidity Indicating Type
  ,                                       ! Humidity Indicating Day Schedule Name
  DefaultMultipliers,                     ! Dry-Bulb Temperature Range Modifier Type
  ,                                       ! Dry-Bulb Temperature Range Modifier Schedule Name
  ASHRAETau,                              ! Solar Model Indicator
  ,                                       ! Beam Solar Day Schedule Name
  ,                                       ! Diffuse Solar Day Schedule Name
  0.456,                                  ! ASHRAE Taub {dimensionless}
  2.022;                                  ! ASHRAE Taud {dimensionless}

OS:ComponentData,
  {b30c33ac-955a-45d9-8fbf-415e68bebc9a}, ! Handle
  Component Data 1,                       ! Name
  {3996c7a4-ed33-4096-811f-3dbfc377a712}, ! UUID
  {25a299e9-b3a5-40af-ae32-3cac0c42d1bf}, ! Version UUID
  1366309861,                             ! Creation Timestamp
  1366309861,                             ! Version Timestamp
  {08e12d61-05fc-4204-b260-34ad83742cc7}; ! Name of Object 1

