
OS:Version,
  {9cec4ab7-5384-4b95-b407-c0f3a1e9a605}, ! Handle
  0.9.3;                                  ! Version Identifier

OS:SizingPeriod:DesignDay,
  {120c3e41-4b62-47c5-a54c-0c3f6c2093ff}, ! Handle
  MIAMI Ann Clg .4% Condns Enth=>MDB,     ! Name
  30.5,                                   ! Maximum Dry-Bulb Temperature {C}
  6.7,                                    ! Daily Dry-Bulb Temperature Range {deltaC}
  83500,                                  ! Humidity Indicating Conditions at Maximum Dry-Bulb {BasedOnField A3}
  101301,                                 ! Barometric Pressure {Pa}
  4.5,                                    ! Wind Speed {m/s}
  140,                                    ! Wind Direction {deg}
  0,                                      ! Sky Clearness
  0,                                      ! Rain Indicator
  0,                                      ! Snow Indicator
  21,                                     ! Day of Month
  7,                                      ! Month
  SummerDesignDay,                        ! Day Type
  0,                                      ! Daylight Saving Time Indicator
  Enthalpy,                               ! Humidity Indicating Type
  ,                                       ! Humidity Indicating Day Schedule Name
  DefaultMultipliers,                     ! Dry-Bulb Temperature Range Modifier Type
  ,                                       ! Dry-Bulb Temperature Range Modifier Schedule Name
  ASHRAETau,                              ! Solar Model Indicator
  ,                                       ! Beam Solar Day Schedule Name
  ,                                       ! Diffuse Solar Day Schedule Name
  0.528,                                  ! ASHRAE Taub {dimensionless}
  1.905;                                  ! ASHRAE Taud {dimensionless}

OS:ComponentData,
  {4d6d99b3-ee49-48fc-ab84-2186158f9443}, ! Handle
  Component Data 1,                       ! Name
  {214863bf-8a96-49e7-8e69-1ab99ec5b445}, ! UUID
  {36a4da05-fcd4-4eff-a476-0f1f2becd0e3}, ! Version UUID
  1366306861,                             ! Creation Timestamp
  1366306861,                             ! Version Timestamp
  {120c3e41-4b62-47c5-a54c-0c3f6c2093ff}; ! Name of Object 1

