
OS:Version,
  {fd20e89e-a99c-437f-b31f-d79639879597}, ! Handle
  0.9.3;                                  ! Version Identifier

OS:SizingPeriod:DesignDay,
  {8b6f7eac-68dd-413f-9d8a-fa3df1249197}, ! Handle
  Orlando Intl Arpt Ann Htg Wind 99.6% Condns WS=>MCDB, ! Name
  17.9,                                   ! Maximum Dry-Bulb Temperature {C}
  0,                                      ! Daily Dry-Bulb Temperature Range {deltaC}
  17.9,                                   ! Humidity Indicating Conditions at Maximum Dry-Bulb {BasedOnField A3}
  100977,                                 ! Barometric Pressure {Pa}
  10.7,                                   ! Wind Speed {m/s}
  340,                                    ! Wind Direction {deg}
  0,                                      ! Sky Clearness
  0,                                      ! Rain Indicator
  0,                                      ! Snow Indicator
  21,                                     ! Day of Month
  1,                                      ! Month
  WinterDesignDay,                        ! Day Type
  0,                                      ! Daylight Saving Time Indicator
  Wetbulb,                                ! Humidity Indicating Type
  ,                                       ! Humidity Indicating Day Schedule Name
  DefaultMultipliers,                     ! Dry-Bulb Temperature Range Modifier Type
  ,                                       ! Dry-Bulb Temperature Range Modifier Schedule Name
  ASHRAEClearSky;                         ! Solar Model Indicator

OS:ComponentData,
  {d00b60cb-562b-4961-9ed8-ed7e491ae594}, ! Handle
  Component Data 1,                       ! Name
  {d49bb7a6-81d6-4ef4-a683-3de2859c394f}, ! UUID
  {af2bc712-dcfa-4079-9c57-ed87b57ff784}, ! Version UUID
  1366306895,                             ! Creation Timestamp
  1366306895,                             ! Version Timestamp
  {8b6f7eac-68dd-413f-9d8a-fa3df1249197}; ! Name of Object 1

