
OS:Version,
  {7288625e-7007-4246-951d-3f0e70bdd914}, ! Handle
  0.9.3;                                  ! Version Identifier

OS:SizingPeriod:DesignDay,
  {7c4a0ab5-c843-4c32-bede-75b933d45f27}, ! Handle
  Wise Lonesome Pine Ann Htg 99.6% Condns DB, ! Name
  -13.7,                                  ! Maximum Dry-Bulb Temperature {C}
  0,                                      ! Daily Dry-Bulb Temperature Range {deltaC}
  -13.7,                                  ! Humidity Indicating Conditions at Maximum Dry-Bulb {BasedOnField A3}
  91888,                                  ! Barometric Pressure {Pa}
  2.8,                                    ! Wind Speed {m/s}
  300,                                    ! Wind Direction {deg}
  0,                                      ! Sky Clearness
  0,                                      ! Rain Indicator
  0,                                      ! Snow Indicator
  21,                                     ! Day of Month
  1,                                      ! Month
  WinterDesignDay,                        ! Day Type
  0,                                      ! Daylight Saving Time Indicator
  Wetbulb,                                ! Humidity Indicating Type
  ,                                       ! Humidity Indicating Day Schedule Name
  DefaultMultipliers,                     ! Dry-Bulb Temperature Range Modifier Type
  ,                                       ! Dry-Bulb Temperature Range Modifier Schedule Name
  ASHRAEClearSky;                         ! Solar Model Indicator

OS:ComponentData,
  {b9edcff8-1c73-498c-bc97-1c8d550eff86}, ! Handle
  Component Data 1,                       ! Name
  {accf159e-c62b-44e6-a973-f048c9688498}, ! UUID
  {b48cc9bf-a62a-474a-8e55-2230dfd72e6f}, ! Version UUID
  1366311228,                             ! Creation Timestamp
  1366311228,                             ! Version Timestamp
  {7c4a0ab5-c843-4c32-bede-75b933d45f27}; ! Name of Object 1

