
OS:Version,
  {29a83b0c-0989-4a55-81ca-9fa0a5b37610}, ! Handle
  0.9.3;                                  ! Version Identifier

OS:SizingPeriod:DesignDay,
  {cdb84a8b-74b4-4d2c-8dee-73f56aef9ac7}, ! Handle
  RICHMOND Ann Htg Wind 99% Condns WS=>MCDB, ! Name
  6.8,                                    ! Maximum Dry-Bulb Temperature {C}
  0,                                      ! Daily Dry-Bulb Temperature Range {deltaC}
  6.8,                                    ! Humidity Indicating Conditions at Maximum Dry-Bulb {BasedOnField A3}
  100726,                                 ! Barometric Pressure {Pa}
  9.9,                                    ! Wind Speed {m/s}
  0,                                      ! Wind Direction {deg}
  0,                                      ! Sky Clearness
  0,                                      ! Rain Indicator
  0,                                      ! Snow Indicator
  21,                                     ! Day of Month
  1,                                      ! Month
  WinterDesignDay,                        ! Day Type
  0,                                      ! Daylight Saving Time Indicator
  Wetbulb,                                ! Humidity Indicating Type
  ,                                       ! Humidity Indicating Day Schedule Name
  DefaultMultipliers,                     ! Dry-Bulb Temperature Range Modifier Type
  ,                                       ! Dry-Bulb Temperature Range Modifier Schedule Name
  ASHRAEClearSky;                         ! Solar Model Indicator

OS:ComponentData,
  {4367d011-b09d-4a52-a0cb-845cb820a59d}, ! Handle
  Component Data 1,                       ! Name
  {32b92349-92c1-44e0-a278-6e1c17c4182c}, ! UUID
  {14e1460a-d5da-4b59-b20b-f187f5929eab}, ! Version UUID
  1366311163,                             ! Creation Timestamp
  1366311163,                             ! Version Timestamp
  {cdb84a8b-74b4-4d2c-8dee-73f56aef9ac7}; ! Name of Object 1

