
OS:Version,
  {b82ad89e-d3a4-47b0-9c0c-e3fe0eb26256}, ! Handle
  0.9.3;                                  ! Version Identifier

OS:SizingPeriod:DesignDay,
  {c7aea9a2-5505-42a8-aad0-2c128e6019d2}, ! Handle
  Provo Muni  Awos Ann Clg 2% Condns WB=>MDB, ! Name
  28.7,                                   ! Maximum Dry-Bulb Temperature {C}
  16.6,                                   ! Daily Dry-Bulb Temperature Range {deltaC}
  17.6,                                   ! Humidity Indicating Conditions at Maximum Dry-Bulb {BasedOnField A3}
  85924,                                  ! Barometric Pressure {Pa}
  2.8,                                    ! Wind Speed {m/s}
  150,                                    ! Wind Direction {deg}
  0,                                      ! Sky Clearness
  0,                                      ! Rain Indicator
  0,                                      ! Snow Indicator
  21,                                     ! Day of Month
  7,                                      ! Month
  SummerDesignDay,                        ! Day Type
  0,                                      ! Daylight Saving Time Indicator
  Wetbulb,                                ! Humidity Indicating Type
  ,                                       ! Humidity Indicating Day Schedule Name
  DefaultMultipliers,                     ! Dry-Bulb Temperature Range Modifier Type
  ,                                       ! Dry-Bulb Temperature Range Modifier Schedule Name
  ASHRAETau,                              ! Solar Model Indicator
  ,                                       ! Beam Solar Day Schedule Name
  ,                                       ! Diffuse Solar Day Schedule Name
  0.425,                                  ! ASHRAE Taub {dimensionless}
  2.042;                                  ! ASHRAE Taud {dimensionless}

OS:ComponentData,
  {167fe666-24fd-4e6b-b7ab-faa06de89413}, ! Handle
  Component Data 1,                       ! Name
  {a7098443-634d-4b1a-8fe1-3dd4fc973335}, ! UUID
  {a285919b-bc89-4088-b7cd-71abd1078afa}, ! Version UUID
  1366310978,                             ! Creation Timestamp
  1366310978,                             ! Version Timestamp
  {c7aea9a2-5505-42a8-aad0-2c128e6019d2}; ! Name of Object 1

