
OS:Version,
  {1499a65c-dc0c-4452-b33e-8ad115ef7df8}, ! Handle
  0.9.3;                                  ! Version Identifier

OS:SizingPeriod:DesignDay,
  {4fe8e940-1cd3-4315-8b56-363d7d313ca3}, ! Handle
  Red Bluff Ann Htg 99% Condns DB,        ! Name
  0.3,                                    ! Maximum Dry-Bulb Temperature {C}
  0,                                      ! Daily Dry-Bulb Temperature Range {deltaC}
  0.3,                                    ! Humidity Indicating Conditions at Maximum Dry-Bulb {BasedOnField A3}
  100058,                                 ! Barometric Pressure {Pa}
  2.3,                                    ! Wind Speed {m/s}
  320,                                    ! Wind Direction {deg}
  0,                                      ! Sky Clearness
  0,                                      ! Rain Indicator
  0,                                      ! Snow Indicator
  21,                                     ! Day of Month
  12,                                     ! Month
  WinterDesignDay,                        ! Day Type
  0,                                      ! Daylight Saving Time Indicator
  Wetbulb,                                ! Humidity Indicating Type
  ,                                       ! Humidity Indicating Day Schedule Name
  DefaultMultipliers,                     ! Dry-Bulb Temperature Range Modifier Type
  ,                                       ! Dry-Bulb Temperature Range Modifier Schedule Name
  ASHRAEClearSky;                         ! Solar Model Indicator

OS:ComponentData,
  {895a479b-c7e4-4c2c-ae85-ca7d04b85cfa}, ! Handle
  Component Data 1,                       ! Name
  {e435321b-cadd-48c1-a20c-9ad7c6c3eade}, ! UUID
  {7ba45d13-8aac-4998-97e5-a4f26eba2a43}, ! Version UUID
  1366306543,                             ! Creation Timestamp
  1366306543,                             ! Version Timestamp
  {4fe8e940-1cd3-4315-8b56-363d7d313ca3}; ! Name of Object 1

