
OS:Version,
  {e435e6e8-26d9-436b-94fa-317391b2b72c}, ! Handle
  0.9.3;                                  ! Version Identifier

OS:SizingPeriod:DesignDay,
  {e7787fc8-5268-474d-850e-763958fea1ce}, ! Handle
  Roanoke Ann Clg .4% Condns Enth=>MDB,   ! Name
  30.7,                                   ! Maximum Dry-Bulb Temperature {C}
  10.6,                                   ! Daily Dry-Bulb Temperature Range {deltaC}
  74400,                                  ! Humidity Indicating Conditions at Maximum Dry-Bulb {BasedOnField A3}
  97098,                                  ! Barometric Pressure {Pa}
  4,                                      ! Wind Speed {m/s}
  280,                                    ! Wind Direction {deg}
  0,                                      ! Sky Clearness
  0,                                      ! Rain Indicator
  0,                                      ! Snow Indicator
  21,                                     ! Day of Month
  7,                                      ! Month
  SummerDesignDay,                        ! Day Type
  0,                                      ! Daylight Saving Time Indicator
  Enthalpy,                               ! Humidity Indicating Type
  ,                                       ! Humidity Indicating Day Schedule Name
  DefaultMultipliers,                     ! Dry-Bulb Temperature Range Modifier Type
  ,                                       ! Dry-Bulb Temperature Range Modifier Schedule Name
  ASHRAETau,                              ! Solar Model Indicator
  ,                                       ! Beam Solar Day Schedule Name
  ,                                       ! Diffuse Solar Day Schedule Name
  0.529,                                  ! ASHRAE Taub {dimensionless}
  1.818;                                  ! ASHRAE Taud {dimensionless}

OS:ComponentData,
  {a4797423-2267-49da-940d-797123c863d9}, ! Handle
  Component Data 1,                       ! Name
  {944c39b4-f756-40aa-b50a-0ca8f9548e09}, ! UUID
  {ea15b2ac-40d5-4164-9550-a9e7cf77b762}, ! Version UUID
  1366311187,                             ! Creation Timestamp
  1366311187,                             ! Version Timestamp
  {e7787fc8-5268-474d-850e-763958fea1ce}; ! Name of Object 1

