
OS:Version,
  {d8b3e04b-7c27-4dd3-92f7-2853276d1ca9}, ! Handle
  0.9.3;                                  ! Version Identifier

OS:SizingPeriod:DesignDay,
  {071b48e6-be62-404d-841d-6c511d91556d}, ! Handle
  Pellston Emmet County Ap Ann Hum_n 99% Condns DP=>MCDB, ! Name
  -19.3,                                  ! Maximum Dry-Bulb Temperature {C}
  0,                                      ! Daily Dry-Bulb Temperature Range {deltaC}
  -23.3,                                  ! Humidity Indicating Conditions at Maximum Dry-Bulb {BasedOnField A3}
  98733,                                  ! Barometric Pressure {Pa}
  1.1,                                    ! Wind Speed {m/s}
  290,                                    ! Wind Direction {deg}
  0,                                      ! Sky Clearness
  0,                                      ! Rain Indicator
  0,                                      ! Snow Indicator
  21,                                     ! Day of Month
  1,                                      ! Month
  WinterDesignDay,                        ! Day Type
  0,                                      ! Daylight Saving Time Indicator
  Dewpoint,                               ! Humidity Indicating Type
  ,                                       ! Humidity Indicating Day Schedule Name
  DefaultMultipliers,                     ! Dry-Bulb Temperature Range Modifier Type
  ,                                       ! Dry-Bulb Temperature Range Modifier Schedule Name
  ASHRAEClearSky;                         ! Solar Model Indicator

OS:ComponentData,
  {2035cdd2-8482-42c2-98aa-f492f959412b}, ! Handle
  Component Data 1,                       ! Name
  {f6de2626-4ebc-420b-bb19-59cb387d744c}, ! UUID
  {5e289994-5960-4740-9cc7-9db21c14a841}, ! Version UUID
  1366308087,                             ! Creation Timestamp
  1366308087,                             ! Version Timestamp
  {071b48e6-be62-404d-841d-6c511d91556d}; ! Name of Object 1

