
OS:Version,
  {c657b062-12c2-4dfc-80b5-9e57b998de3b}, ! Handle
  0.9.3;                                  ! Version Identifier

OS:SizingPeriod:DesignDay,
  {655879b5-da1d-4797-b265-adc160e08f1c}, ! Handle
  Pasco Ann Clg .4% Condns WB=>MDB,       ! Name
  34.7,                                   ! Maximum Dry-Bulb Temperature {C}
  17.8,                                   ! Daily Dry-Bulb Temperature Range {deltaC}
  22.3,                                   ! Humidity Indicating Conditions at Maximum Dry-Bulb {BasedOnField A3}
  99702,                                  ! Barometric Pressure {Pa}
  3.1,                                    ! Wind Speed {m/s}
  330,                                    ! Wind Direction {deg}
  0,                                      ! Sky Clearness
  0,                                      ! Rain Indicator
  0,                                      ! Snow Indicator
  21,                                     ! Day of Month
  7,                                      ! Month
  SummerDesignDay,                        ! Day Type
  0,                                      ! Daylight Saving Time Indicator
  Wetbulb,                                ! Humidity Indicating Type
  ,                                       ! Humidity Indicating Day Schedule Name
  DefaultMultipliers,                     ! Dry-Bulb Temperature Range Modifier Type
  ,                                       ! Dry-Bulb Temperature Range Modifier Schedule Name
  ASHRAETau,                              ! Solar Model Indicator
  ,                                       ! Beam Solar Day Schedule Name
  ,                                       ! Diffuse Solar Day Schedule Name
  0.398,                                  ! ASHRAE Taub {dimensionless}
  2.219;                                  ! ASHRAE Taud {dimensionless}

OS:ComponentData,
  {efe150e6-f5d2-4e4a-8cc1-46f7218d3a2d}, ! Handle
  Component Data 1,                       ! Name
  {4cd5a9f6-85b0-4c4f-a2d2-b5c07fab96af}, ! UUID
  {15d0c836-842c-4a93-a433-fce2256402a7}, ! Version UUID
  1366311320,                             ! Creation Timestamp
  1366311320,                             ! Version Timestamp
  {655879b5-da1d-4797-b265-adc160e08f1c}; ! Name of Object 1

