
OS:Version,
  {ef092483-cf9e-44f1-b2f9-923e3edb292c}, ! Handle
  0.9.3;                                  ! Version Identifier

OS:SizingPeriod:DesignDay,
  {d29772aa-3020-45bf-8959-6cbcd019fd1f}, ! Handle
  Yuma Ann Clg .4% Condns Enth=>MDB,      ! Name
  36,                                     ! Maximum Dry-Bulb Temperature {C}
  13.1,                                   ! Daily Dry-Bulb Temperature Range {deltaC}
  83100,                                  ! Humidity Indicating Conditions at Maximum Dry-Bulb {BasedOnField A3}
  100582,                                 ! Barometric Pressure {Pa}
  3.3,                                    ! Wind Speed {m/s}
  270,                                    ! Wind Direction {deg}
  0,                                      ! Sky Clearness
  0,                                      ! Rain Indicator
  0,                                      ! Snow Indicator
  21,                                     ! Day of Month
  7,                                      ! Month
  SummerDesignDay,                        ! Day Type
  0,                                      ! Daylight Saving Time Indicator
  Enthalpy,                               ! Humidity Indicating Type
  ,                                       ! Humidity Indicating Day Schedule Name
  DefaultMultipliers,                     ! Dry-Bulb Temperature Range Modifier Type
  ,                                       ! Dry-Bulb Temperature Range Modifier Schedule Name
  ASHRAETau,                              ! Solar Model Indicator
  ,                                       ! Beam Solar Day Schedule Name
  ,                                       ! Diffuse Solar Day Schedule Name
  0.533,                                  ! ASHRAE Taub {dimensionless}
  1.764;                                  ! ASHRAE Taud {dimensionless}

