
OS:Version,
  {86ac4d86-8d6e-49c9-83b3-eac63a20f524}, ! Handle
  0.9.3;                                  ! Version Identifier

OS:SizingPeriod:DesignDay,
  {7bd6ac3c-a99f-4d54-b9c3-51cc2d3fc8b6}, ! Handle
  SPRINGFIELD Ann Clg .4% Condns DB=>MWB, ! Name
  35,                                     ! Maximum Dry-Bulb Temperature {C}
  11,                                     ! Daily Dry-Bulb Temperature Range {deltaC}
  23.6,                                   ! Humidity Indicating Conditions at Maximum Dry-Bulb {BasedOnField A3}
  96761,                                  ! Barometric Pressure {Pa}
  3.9,                                    ! Wind Speed {m/s}
  180,                                    ! Wind Direction {deg}
  0,                                      ! Sky Clearness
  0,                                      ! Rain Indicator
  0,                                      ! Snow Indicator
  21,                                     ! Day of Month
  7,                                      ! Month
  SummerDesignDay,                        ! Day Type
  0,                                      ! Daylight Saving Time Indicator
  Wetbulb,                                ! Humidity Indicating Type
  ,                                       ! Humidity Indicating Day Schedule Name
  DefaultMultipliers,                     ! Dry-Bulb Temperature Range Modifier Type
  ,                                       ! Dry-Bulb Temperature Range Modifier Schedule Name
  ASHRAETau,                              ! Solar Model Indicator
  ,                                       ! Beam Solar Day Schedule Name
  ,                                       ! Diffuse Solar Day Schedule Name
  0.448,                                  ! ASHRAE Taub {dimensionless}
  2.097;                                  ! ASHRAE Taud {dimensionless}

OS:ComponentData,
  {b89f8b9b-11a0-4189-9b6b-3fffae602c0b}, ! Handle
  Component Data 1,                       ! Name
  {4c1f6bce-5cea-464e-8975-98fd7f00dca7}, ! UUID
  {1395960c-7af9-4123-b55e-31bbf16f50ce}, ! Version UUID
  1366308560,                             ! Creation Timestamp
  1366308560,                             ! Version Timestamp
  {7bd6ac3c-a99f-4d54-b9c3-51cc2d3fc8b6}; ! Name of Object 1

