
OS:Version,
  {a20a91c2-e0e9-4b86-9a82-b0dd3056bb49}, ! Handle
  0.9.3;                                  ! Version Identifier

OS:SizingPeriod:DesignDay,
  {20708ba5-6ddf-4fdb-86d7-7f8e2cfd2fe8}, ! Handle
  Nashville International Ap Ann Htg Wind 99.6% Condns WS=>MCDB, ! Name
  9.8,                                    ! Maximum Dry-Bulb Temperature {C}
  0,                                      ! Daily Dry-Bulb Temperature Range {deltaC}
  9.8,                                    ! Humidity Indicating Conditions at Maximum Dry-Bulb {BasedOnField A3}
  99217,                                  ! Barometric Pressure {Pa}
  10.8,                                   ! Wind Speed {m/s}
  0,                                      ! Wind Direction {deg}
  0,                                      ! Sky Clearness
  0,                                      ! Rain Indicator
  0,                                      ! Snow Indicator
  21,                                     ! Day of Month
  1,                                      ! Month
  WinterDesignDay,                        ! Day Type
  0,                                      ! Daylight Saving Time Indicator
  Wetbulb,                                ! Humidity Indicating Type
  ,                                       ! Humidity Indicating Day Schedule Name
  DefaultMultipliers,                     ! Dry-Bulb Temperature Range Modifier Type
  ,                                       ! Dry-Bulb Temperature Range Modifier Schedule Name
  ASHRAEClearSky;                         ! Solar Model Indicator

OS:ComponentData,
  {c569a6cc-f9fa-43a0-bb6f-01549446086d}, ! Handle
  Component Data 1,                       ! Name
  {dfe39d69-5cb7-4dc9-98e7-07bb71bcfdaa}, ! UUID
  {328d2a03-ec29-4dd7-8326-617e00b065c8}, ! Version UUID
  1366310541,                             ! Creation Timestamp
  1366310541,                             ! Version Timestamp
  {20708ba5-6ddf-4fdb-86d7-7f8e2cfd2fe8}; ! Name of Object 1

