
OS:Version,
  {c5909c3d-0fd9-4416-937b-637dd776925f}, ! Handle
  0.9.3;                                  ! Version Identifier

OS:SizingPeriod:DesignDay,
  {323760d7-7003-4107-b460-e56df622fcab}, ! Handle
  Providence Ann Hum_n 99% Condns DP=>MCDB, ! Name
  -9.5,                                   ! Maximum Dry-Bulb Temperature {C}
  0,                                      ! Daily Dry-Bulb Temperature Range {deltaC}
  -21.2,                                  ! Humidity Indicating Conditions at Maximum Dry-Bulb {BasedOnField A3}
  101097,                                 ! Barometric Pressure {Pa}
  5,                                      ! Wind Speed {m/s}
  330,                                    ! Wind Direction {deg}
  0,                                      ! Sky Clearness
  0,                                      ! Rain Indicator
  0,                                      ! Snow Indicator
  21,                                     ! Day of Month
  1,                                      ! Month
  WinterDesignDay,                        ! Day Type
  0,                                      ! Daylight Saving Time Indicator
  Dewpoint,                               ! Humidity Indicating Type
  ,                                       ! Humidity Indicating Day Schedule Name
  DefaultMultipliers,                     ! Dry-Bulb Temperature Range Modifier Type
  ,                                       ! Dry-Bulb Temperature Range Modifier Schedule Name
  ASHRAEClearSky;                         ! Solar Model Indicator

OS:ComponentData,
  {b47c71a2-aa76-4980-8f0e-ebd78af3bf1c}, ! Handle
  Component Data 1,                       ! Name
  {668ceade-418f-4566-a800-1de99b9c91f7}, ! UUID
  {78306a3d-7375-4965-a9b5-015da6e2b9b8}, ! Version UUID
  1366310297,                             ! Creation Timestamp
  1366310297,                             ! Version Timestamp
  {323760d7-7003-4107-b460-e56df622fcab}; ! Name of Object 1

