
OS:Version,
  {9da516cb-2fd6-49ae-bc41-98e8eebfaed3}, ! Handle
  0.9.3;                                  ! Version Identifier

OS:SizingPeriod:DesignDay,
  {0e902e1d-d2fd-4540-b18e-90de89a24c27}, ! Handle
  Middleton Island Aut Ann Clg 1% Condns DP=>MDB, ! Name
  15.1,                                   ! Maximum Dry-Bulb Temperature {C}
  3.4,                                    ! Daily Dry-Bulb Temperature Range {deltaC}
  12.2,                                   ! Humidity Indicating Conditions at Maximum Dry-Bulb {BasedOnField A3}
  101157,                                 ! Barometric Pressure {Pa}
  3.7,                                    ! Wind Speed {m/s}
  270,                                    ! Wind Direction {deg}
  0,                                      ! Sky Clearness
  0,                                      ! Rain Indicator
  0,                                      ! Snow Indicator
  21,                                     ! Day of Month
  8,                                      ! Month
  SummerDesignDay,                        ! Day Type
  0,                                      ! Daylight Saving Time Indicator
  Dewpoint,                               ! Humidity Indicating Type
  ,                                       ! Humidity Indicating Day Schedule Name
  DefaultMultipliers,                     ! Dry-Bulb Temperature Range Modifier Type
  ,                                       ! Dry-Bulb Temperature Range Modifier Schedule Name
  ASHRAETau,                              ! Solar Model Indicator
  ,                                       ! Beam Solar Day Schedule Name
  ,                                       ! Diffuse Solar Day Schedule Name
  0.366,                                  ! ASHRAE Taub {dimensionless}
  2.392;                                  ! ASHRAE Taud {dimensionless}

