
OS:Version,
  {2f30066f-ba17-4658-bd16-e4a4bfe4ba13}, ! Handle
  0.9.3;                                  ! Version Identifier

OS:SizingPeriod:DesignDay,
  {865c2c94-20af-4cc0-86b1-f17a7cc0a4bf}, ! Handle
  St Cloud Regional Arpt Ann Clg 1% Condns DP=>MDB, ! Name
  26.9,                                   ! Maximum Dry-Bulb Temperature {C}
  12.3,                                   ! Daily Dry-Bulb Temperature Range {deltaC}
  21.8,                                   ! Humidity Indicating Conditions at Maximum Dry-Bulb {BasedOnField A3}
  97644,                                  ! Barometric Pressure {Pa}
  5.1,                                    ! Wind Speed {m/s}
  180,                                    ! Wind Direction {deg}
  0,                                      ! Sky Clearness
  0,                                      ! Rain Indicator
  0,                                      ! Snow Indicator
  21,                                     ! Day of Month
  7,                                      ! Month
  SummerDesignDay,                        ! Day Type
  0,                                      ! Daylight Saving Time Indicator
  Dewpoint,                               ! Humidity Indicating Type
  ,                                       ! Humidity Indicating Day Schedule Name
  DefaultMultipliers,                     ! Dry-Bulb Temperature Range Modifier Type
  ,                                       ! Dry-Bulb Temperature Range Modifier Schedule Name
  ASHRAETau,                              ! Solar Model Indicator
  ,                                       ! Beam Solar Day Schedule Name
  ,                                       ! Diffuse Solar Day Schedule Name
  0.405,                                  ! ASHRAE Taub {dimensionless}
  2.216;                                  ! ASHRAE Taud {dimensionless}

OS:ComponentData,
  {fc251cea-cccb-42b1-aa5b-afb91f0a01c9}, ! Handle
  Component Data 1,                       ! Name
  {66f2bd86-c0ce-45c9-ac70-2a0888fb0acd}, ! UUID
  {78c9e37e-66e2-48f5-9d04-b794bf3c3ded}, ! Version UUID
  1366308430,                             ! Creation Timestamp
  1366308430,                             ! Version Timestamp
  {865c2c94-20af-4cc0-86b1-f17a7cc0a4bf}; ! Name of Object 1

