
OS:Version,
  {60257acf-230c-4407-9bd7-ccb2c802ce25}, ! Handle
  0.9.3;                                  ! Version Identifier

OS:SizingPeriod:DesignDay,
  {ee38935c-5d17-476d-9acd-93cee015e59b}, ! Handle
  Tekamah  Asos Ann Clg .4% Condns DB=>MWB, ! Name
  34.1,                                   ! Maximum Dry-Bulb Temperature {C}
  11.8,                                   ! Daily Dry-Bulb Temperature Range {deltaC}
  24,                                     ! Humidity Indicating Conditions at Maximum Dry-Bulb {BasedOnField A3}
  97633,                                  ! Barometric Pressure {Pa}
  6.6,                                    ! Wind Speed {m/s}
  180,                                    ! Wind Direction {deg}
  0,                                      ! Sky Clearness
  0,                                      ! Rain Indicator
  0,                                      ! Snow Indicator
  21,                                     ! Day of Month
  7,                                      ! Month
  SummerDesignDay,                        ! Day Type
  0,                                      ! Daylight Saving Time Indicator
  Wetbulb,                                ! Humidity Indicating Type
  ,                                       ! Humidity Indicating Day Schedule Name
  DefaultMultipliers,                     ! Dry-Bulb Temperature Range Modifier Type
  ,                                       ! Dry-Bulb Temperature Range Modifier Schedule Name
  ASHRAETau,                              ! Solar Model Indicator
  ,                                       ! Beam Solar Day Schedule Name
  ,                                       ! Diffuse Solar Day Schedule Name
  0.417,                                  ! ASHRAE Taub {dimensionless}
  2.204;                                  ! ASHRAE Taud {dimensionless}

OS:ComponentData,
  {8430ccd0-5459-4fef-8368-4a8da92b5c0e}, ! Handle
  Component Data 1,                       ! Name
  {01fc140f-85e2-4f07-8990-f760a396f6af}, ! UUID
  {7cd50409-85cc-420e-85d9-5fff56a4c5e9}, ! Version UUID
  1366309206,                             ! Creation Timestamp
  1366309206,                             ! Version Timestamp
  {ee38935c-5d17-476d-9acd-93cee015e59b}; ! Name of Object 1

