
OS:Version,
  {9b78e25b-f73b-4031-8984-018b44433e6a}, ! Handle
  0.9.3;                                  ! Version Identifier

OS:SizingPeriod:DesignDay,
  {8a71b50c-374e-4781-a853-51017210336d}, ! Handle
  Saint George  Awos Ann Clg 1% Condns WB=>MDB, ! Name
  34.1,                                   ! Maximum Dry-Bulb Temperature {C}
  14.3,                                   ! Daily Dry-Bulb Temperature Range {deltaC}
  19.8,                                   ! Humidity Indicating Conditions at Maximum Dry-Bulb {BasedOnField A3}
  91014,                                  ! Barometric Pressure {Pa}
  6.6,                                    ! Wind Speed {m/s}
  250,                                    ! Wind Direction {deg}
  0,                                      ! Sky Clearness
  0,                                      ! Rain Indicator
  0,                                      ! Snow Indicator
  21,                                     ! Day of Month
  7,                                      ! Month
  SummerDesignDay,                        ! Day Type
  0,                                      ! Daylight Saving Time Indicator
  Wetbulb,                                ! Humidity Indicating Type
  ,                                       ! Humidity Indicating Day Schedule Name
  DefaultMultipliers,                     ! Dry-Bulb Temperature Range Modifier Type
  ,                                       ! Dry-Bulb Temperature Range Modifier Schedule Name
  ASHRAETau,                              ! Solar Model Indicator
  ,                                       ! Beam Solar Day Schedule Name
  ,                                       ! Diffuse Solar Day Schedule Name
  0.485,                                  ! ASHRAE Taub {dimensionless}
  1.844;                                  ! ASHRAE Taud {dimensionless}

OS:ComponentData,
  {79b4e70f-f2ec-445d-bf41-beb932e631fb}, ! Handle
  Component Data 1,                       ! Name
  {72c617d1-a9b9-49a3-99c1-5e72a85e0d6e}, ! UUID
  {7f71ab6a-5524-46db-a8b1-0ccc52ed22fb}, ! Version UUID
  1366310983,                             ! Creation Timestamp
  1366310983,                             ! Version Timestamp
  {8a71b50c-374e-4781-a853-51017210336d}; ! Name of Object 1

