
OS:Version,
  {0b8da3fb-a4c5-4132-a3a6-60e89879e4fc}, ! Handle
  0.9.3;                                  ! Version Identifier

OS:SizingPeriod:DesignDay,
  {2b2a91a4-c83f-4938-b979-1c480c352737}, ! Handle
  Red Bluff Ann Clg .4% Condns DB=>MWB,   ! Name
  40.6,                                   ! Maximum Dry-Bulb Temperature {C}
  16.9,                                   ! Daily Dry-Bulb Temperature Range {deltaC}
  20.9,                                   ! Humidity Indicating Conditions at Maximum Dry-Bulb {BasedOnField A3}
  100058,                                 ! Barometric Pressure {Pa}
  3.9,                                    ! Wind Speed {m/s}
  150,                                    ! Wind Direction {deg}
  0,                                      ! Sky Clearness
  0,                                      ! Rain Indicator
  0,                                      ! Snow Indicator
  21,                                     ! Day of Month
  7,                                      ! Month
  SummerDesignDay,                        ! Day Type
  0,                                      ! Daylight Saving Time Indicator
  Wetbulb,                                ! Humidity Indicating Type
  ,                                       ! Humidity Indicating Day Schedule Name
  DefaultMultipliers,                     ! Dry-Bulb Temperature Range Modifier Type
  ,                                       ! Dry-Bulb Temperature Range Modifier Schedule Name
  ASHRAETau,                              ! Solar Model Indicator
  ,                                       ! Beam Solar Day Schedule Name
  ,                                       ! Diffuse Solar Day Schedule Name
  0.364,                                  ! ASHRAE Taub {dimensionless}
  2.504;                                  ! ASHRAE Taud {dimensionless}

OS:ComponentData,
  {94f94011-f736-49f8-8e01-eae56acc01a8}, ! Handle
  Component Data 1,                       ! Name
  {8c9b3517-1168-4576-a1fe-5efc663c6fc2}, ! UUID
  {ddf601c8-2e64-4e3a-8eda-80b55a755dd3}, ! Version UUID
  1366306544,                             ! Creation Timestamp
  1366306544,                             ! Version Timestamp
  {2b2a91a4-c83f-4938-b979-1c480c352737}; ! Name of Object 1

