
OS:Version,
  {520dc4e1-d04d-48ba-89a9-2d8f0764f45c}, ! Handle
  0.9.3;                                  ! Version Identifier

OS:SizingPeriod:DesignDay,
  {f4758f7b-05b6-438e-bf03-bde61668b6cd}, ! Handle
  Meridian Ann Htg 99.6% Condns DB,       ! Name
  -5.6,                                   ! Maximum Dry-Bulb Temperature {C}
  0,                                      ! Daily Dry-Bulb Temperature Range {deltaC}
  -5.6,                                   ! Humidity Indicating Conditions at Maximum Dry-Bulb {BasedOnField A3}
  100201,                                 ! Barometric Pressure {Pa}
  2.4,                                    ! Wind Speed {m/s}
  0,                                      ! Wind Direction {deg}
  0,                                      ! Sky Clearness
  0,                                      ! Rain Indicator
  0,                                      ! Snow Indicator
  21,                                     ! Day of Month
  1,                                      ! Month
  WinterDesignDay,                        ! Day Type
  0,                                      ! Daylight Saving Time Indicator
  Wetbulb,                                ! Humidity Indicating Type
  ,                                       ! Humidity Indicating Day Schedule Name
  DefaultMultipliers,                     ! Dry-Bulb Temperature Range Modifier Type
  ,                                       ! Dry-Bulb Temperature Range Modifier Schedule Name
  ASHRAEClearSky;                         ! Solar Model Indicator

OS:ComponentData,
  {54f399ed-a41c-488e-981d-8e3a7c9a4fdc}, ! Handle
  Component Data 1,                       ! Name
  {9560f472-684d-4667-9f64-a841595de78c}, ! UUID
  {80efdf13-a1f7-42d8-a064-1cf3c7e2f722}, ! Version UUID
  1366308660,                             ! Creation Timestamp
  1366308660,                             ! Version Timestamp
  {f4758f7b-05b6-438e-bf03-bde61668b6cd}; ! Name of Object 1

