
OS:Version,
  {22344945-7b4f-4a44-8e34-029dd04cafda}, ! Handle
  0.9.3;                                  ! Version Identifier

OS:SizingPeriod:DesignDay,
  {1ff1d4d1-351e-44f7-b5bd-dfe75ba86371}, ! Handle
  Modesto City County Ap Ann Htg 99% Condns DB, ! Name
  0.9,                                    ! Maximum Dry-Bulb Temperature {C}
  0,                                      ! Daily Dry-Bulb Temperature Range {deltaC}
  0.9,                                    ! Humidity Indicating Conditions at Maximum Dry-Bulb {BasedOnField A3}
  100965,                                 ! Barometric Pressure {Pa}
  1.2,                                    ! Wind Speed {m/s}
  120,                                    ! Wind Direction {deg}
  0,                                      ! Sky Clearness
  0,                                      ! Rain Indicator
  0,                                      ! Snow Indicator
  21,                                     ! Day of Month
  1,                                      ! Month
  WinterDesignDay,                        ! Day Type
  0,                                      ! Daylight Saving Time Indicator
  Wetbulb,                                ! Humidity Indicating Type
  ,                                       ! Humidity Indicating Day Schedule Name
  DefaultMultipliers,                     ! Dry-Bulb Temperature Range Modifier Type
  ,                                       ! Dry-Bulb Temperature Range Modifier Schedule Name
  ASHRAEClearSky;                         ! Solar Model Indicator

OS:ComponentData,
  {9373bd80-7781-4560-aee7-11cd09adee09}, ! Handle
  Component Data 1,                       ! Name
  {9d6921e8-0140-4dce-842d-1ef8de4c1c04}, ! UUID
  {990585c7-a7cf-4879-9ba7-65b251a2324f}, ! Version UUID
  1366306489,                             ! Creation Timestamp
  1366306489,                             ! Version Timestamp
  {1ff1d4d1-351e-44f7-b5bd-dfe75ba86371}; ! Name of Object 1

