
OS:Version,
  {c00546ec-ec29-4edc-957b-2739a7829c6f}, ! Handle
  0.9.3;                                  ! Version Identifier

OS:SizingPeriod:DesignDay,
  {b9b365f4-aab0-45ec-bf93-b6da8f4adfe7}, ! Handle
  St Cloud Regional Arpt Ann Hum_n 99.6% Condns DP=>MCDB, ! Name
  -26.8,                                  ! Maximum Dry-Bulb Temperature {C}
  0,                                      ! Daily Dry-Bulb Temperature Range {deltaC}
  -31.7,                                  ! Humidity Indicating Conditions at Maximum Dry-Bulb {BasedOnField A3}
  97644,                                  ! Barometric Pressure {Pa}
  2.6,                                    ! Wind Speed {m/s}
  310,                                    ! Wind Direction {deg}
  0,                                      ! Sky Clearness
  0,                                      ! Rain Indicator
  0,                                      ! Snow Indicator
  21,                                     ! Day of Month
  1,                                      ! Month
  WinterDesignDay,                        ! Day Type
  0,                                      ! Daylight Saving Time Indicator
  Dewpoint,                               ! Humidity Indicating Type
  ,                                       ! Humidity Indicating Day Schedule Name
  DefaultMultipliers,                     ! Dry-Bulb Temperature Range Modifier Type
  ,                                       ! Dry-Bulb Temperature Range Modifier Schedule Name
  ASHRAEClearSky;                         ! Solar Model Indicator

OS:ComponentData,
  {036f7302-4105-46db-b4ae-4ad1b74ed531}, ! Handle
  Component Data 1,                       ! Name
  {32d9825d-7e40-46d3-82e4-13bac2ce92eb}, ! UUID
  {21f0bda4-16b5-4c30-add8-469923d400bc}, ! Version UUID
  1366308427,                             ! Creation Timestamp
  1366308427,                             ! Version Timestamp
  {b9b365f4-aab0-45ec-bf93-b6da8f4adfe7}; ! Name of Object 1

