
OS:Version,
  {3b84814f-7095-4284-b634-621e8c43b6ce}, ! Handle
  0.9.3;                                  ! Version Identifier

OS:SizingPeriod:DesignDay,
  {14dcaee4-bde7-4f23-9492-a43fd0b48319}, ! Handle
  San Antonio/Randolph A Ann Clg 2% Condns DP=>MDB, ! Name
  26.5,                                   ! Maximum Dry-Bulb Temperature {C}
  11.2,                                   ! Daily Dry-Bulb Temperature Range {deltaC}
  23.6,                                   ! Humidity Indicating Conditions at Maximum Dry-Bulb {BasedOnField A3}
  98569,                                  ! Barometric Pressure {Pa}
  4.3,                                    ! Wind Speed {m/s}
  160,                                    ! Wind Direction {deg}
  0,                                      ! Sky Clearness
  0,                                      ! Rain Indicator
  0,                                      ! Snow Indicator
  21,                                     ! Day of Month
  8,                                      ! Month
  SummerDesignDay,                        ! Day Type
  0,                                      ! Daylight Saving Time Indicator
  Dewpoint,                               ! Humidity Indicating Type
  ,                                       ! Humidity Indicating Day Schedule Name
  DefaultMultipliers,                     ! Dry-Bulb Temperature Range Modifier Type
  ,                                       ! Dry-Bulb Temperature Range Modifier Schedule Name
  ASHRAETau,                              ! Solar Model Indicator
  ,                                       ! Beam Solar Day Schedule Name
  ,                                       ! Diffuse Solar Day Schedule Name
  0.449,                                  ! ASHRAE Taub {dimensionless}
  2.144;                                  ! ASHRAE Taud {dimensionless}

OS:ComponentData,
  {35639604-2830-4b4e-9a72-35b84b5e3901}, ! Handle
  Component Data 1,                       ! Name
  {fdefe0c7-ba73-4331-a318-75362681219b}, ! UUID
  {7f58e5a1-f388-4256-a0a5-290808e6c15e}, ! Version UUID
  1366310895,                             ! Creation Timestamp
  1366310895,                             ! Version Timestamp
  {14dcaee4-bde7-4f23-9492-a43fd0b48319}; ! Name of Object 1

