
OS:Version,
  {238e2178-2d51-4288-a9d3-8f45bc2b9da0}, ! Handle
  0.9.3;                                  ! Version Identifier

OS:SizingPeriod:DesignDay,
  {6ef0c210-9578-429f-bbbc-7314cf5d2f6c}, ! Handle
  Moody Afb Valdosta Ann Clg 1% Condns DP=>MDB, ! Name
  28.6,                                   ! Maximum Dry-Bulb Temperature {C}
  10,                                     ! Daily Dry-Bulb Temperature Range {deltaC}
  24.5,                                   ! Humidity Indicating Conditions at Maximum Dry-Bulb {BasedOnField A3}
  100475,                                 ! Barometric Pressure {Pa}
  2.6,                                    ! Wind Speed {m/s}
  300,                                    ! Wind Direction {deg}
  0,                                      ! Sky Clearness
  0,                                      ! Rain Indicator
  0,                                      ! Snow Indicator
  21,                                     ! Day of Month
  7,                                      ! Month
  SummerDesignDay,                        ! Day Type
  0,                                      ! Daylight Saving Time Indicator
  Dewpoint,                               ! Humidity Indicating Type
  ,                                       ! Humidity Indicating Day Schedule Name
  DefaultMultipliers,                     ! Dry-Bulb Temperature Range Modifier Type
  ,                                       ! Dry-Bulb Temperature Range Modifier Schedule Name
  ASHRAETau,                              ! Solar Model Indicator
  ,                                       ! Beam Solar Day Schedule Name
  ,                                       ! Diffuse Solar Day Schedule Name
  0.545,                                  ! ASHRAE Taub {dimensionless}
  1.836;                                  ! ASHRAE Taud {dimensionless}

OS:ComponentData,
  {11eafd2a-d9bd-4760-9056-45fdd76f805b}, ! Handle
  Component Data 1,                       ! Name
  {9dd26ec8-3bfb-4c3a-9e6d-112474fae25f}, ! UUID
  {fbcffe16-d637-4359-9af8-e886297768ab}, ! Version UUID
  1366307060,                             ! Creation Timestamp
  1366307060,                             ! Version Timestamp
  {6ef0c210-9578-429f-bbbc-7314cf5d2f6c}; ! Name of Object 1

