
OS:Version,
  {799c5546-c742-49fb-bbd5-95367d639f57}, ! Handle
  0.9.3;                                  ! Version Identifier

OS:SizingPeriod:DesignDay,
  {d5d13a8d-ddc0-4aa1-a53d-6b22eb83fcc2}, ! Handle
  Whiteman Afb Ann Clg .4% Condns DB=>MWB, ! Name
  36,                                     ! Maximum Dry-Bulb Temperature {C}
  10.6,                                   ! Daily Dry-Bulb Temperature Range {deltaC}
  24.7,                                   ! Humidity Indicating Conditions at Maximum Dry-Bulb {BasedOnField A3}
  98299,                                  ! Barometric Pressure {Pa}
  4.4,                                    ! Wind Speed {m/s}
  200,                                    ! Wind Direction {deg}
  0,                                      ! Sky Clearness
  0,                                      ! Rain Indicator
  0,                                      ! Snow Indicator
  21,                                     ! Day of Month
  7,                                      ! Month
  SummerDesignDay,                        ! Day Type
  0,                                      ! Daylight Saving Time Indicator
  Wetbulb,                                ! Humidity Indicating Type
  ,                                       ! Humidity Indicating Day Schedule Name
  DefaultMultipliers,                     ! Dry-Bulb Temperature Range Modifier Type
  ,                                       ! Dry-Bulb Temperature Range Modifier Schedule Name
  ASHRAETau,                              ! Solar Model Indicator
  ,                                       ! Beam Solar Day Schedule Name
  ,                                       ! Diffuse Solar Day Schedule Name
  0.447,                                  ! ASHRAE Taub {dimensionless}
  2.107;                                  ! ASHRAE Taud {dimensionless}

OS:ComponentData,
  {b5524b40-e73f-4450-9ccf-9ee807409a52}, ! Handle
  Component Data 1,                       ! Name
  {12d7f48f-e12b-4313-8516-6f2230015089}, ! UUID
  {99e38965-6f93-4cd3-a9b7-65c9dcb0f6db}, ! Version UUID
  1366308601,                             ! Creation Timestamp
  1366308601,                             ! Version Timestamp
  {d5d13a8d-ddc0-4aa1-a53d-6b22eb83fcc2}; ! Name of Object 1

