
OS:Version,
  {2d31ae8a-5d16-4329-a185-71f46a272e0e}, ! Handle
  0.9.3;                                  ! Version Identifier

OS:SizingPeriod:DesignDay,
  {cca42a57-cd95-4291-94a0-7b2b290b420a}, ! Handle
  Ottumwa Industrial Ap Ann Clg 2% Condns DP=>MDB, ! Name
  27.5,                                   ! Maximum Dry-Bulb Temperature {C}
  10.4,                                   ! Daily Dry-Bulb Temperature Range {deltaC}
  22.5,                                   ! Humidity Indicating Conditions at Maximum Dry-Bulb {BasedOnField A3}
  98275,                                  ! Barometric Pressure {Pa}
  6.2,                                    ! Wind Speed {m/s}
  190,                                    ! Wind Direction {deg}
  0,                                      ! Sky Clearness
  0,                                      ! Rain Indicator
  0,                                      ! Snow Indicator
  21,                                     ! Day of Month
  7,                                      ! Month
  SummerDesignDay,                        ! Day Type
  0,                                      ! Daylight Saving Time Indicator
  Dewpoint,                               ! Humidity Indicating Type
  ,                                       ! Humidity Indicating Day Schedule Name
  DefaultMultipliers,                     ! Dry-Bulb Temperature Range Modifier Type
  ,                                       ! Dry-Bulb Temperature Range Modifier Schedule Name
  ASHRAETau,                              ! Solar Model Indicator
  ,                                       ! Beam Solar Day Schedule Name
  ,                                       ! Diffuse Solar Day Schedule Name
  0.44,                                   ! ASHRAE Taub {dimensionless}
  2.113;                                  ! ASHRAE Taud {dimensionless}

OS:ComponentData,
  {cc4666da-a691-4e10-89eb-be3e39b6e509}, ! Handle
  Component Data 1,                       ! Name
  {ab821b63-7a55-40e9-938a-9323a0385a90}, ! UUID
  {0997129e-874b-4c58-8850-c0b11c1bc6c4}, ! Version UUID
  1366307227,                             ! Creation Timestamp
  1366307227,                             ! Version Timestamp
  {cca42a57-cd95-4291-94a0-7b2b290b420a}; ! Name of Object 1

