
OS:Version,
  {a1ce8b7b-5bff-436c-aae8-033cbc7b641a}, ! Handle
  0.9.3;                                  ! Version Identifier

OS:SizingPeriod:DesignDay,
  {74edabe0-125a-4606-a225-be731d1ae47d}, ! Handle
  SPOKANE Ann Clg 1% Condns WB=>MDB,      ! Name
  28.4,                                   ! Maximum Dry-Bulb Temperature {C}
  14.5,                                   ! Daily Dry-Bulb Temperature Range {deltaC}
  17.4,                                   ! Humidity Indicating Conditions at Maximum Dry-Bulb {BasedOnField A3}
  92958,                                  ! Barometric Pressure {Pa}
  3.4,                                    ! Wind Speed {m/s}
  240,                                    ! Wind Direction {deg}
  0,                                      ! Sky Clearness
  0,                                      ! Rain Indicator
  0,                                      ! Snow Indicator
  21,                                     ! Day of Month
  7,                                      ! Month
  SummerDesignDay,                        ! Day Type
  0,                                      ! Daylight Saving Time Indicator
  Wetbulb,                                ! Humidity Indicating Type
  ,                                       ! Humidity Indicating Day Schedule Name
  DefaultMultipliers,                     ! Dry-Bulb Temperature Range Modifier Type
  ,                                       ! Dry-Bulb Temperature Range Modifier Schedule Name
  ASHRAETau,                              ! Solar Model Indicator
  ,                                       ! Beam Solar Day Schedule Name
  ,                                       ! Diffuse Solar Day Schedule Name
  0.353,                                  ! ASHRAE Taub {dimensionless}
  2.387;                                  ! ASHRAE Taud {dimensionless}

OS:ComponentData,
  {063f4796-258b-4b68-8005-eff96a78e64c}, ! Handle
  Component Data 1,                       ! Name
  {cd17460c-b617-4f14-b840-0bedfa934143}, ! UUID
  {2c392b08-9461-43af-8309-0af5ed872c4a}, ! Version UUID
  1366311385,                             ! Creation Timestamp
  1366311385,                             ! Version Timestamp
  {74edabe0-125a-4606-a225-be731d1ae47d}; ! Name of Object 1

