
OS:Version,
  {3208e9a4-9485-45d0-8a14-0e077e3af514}, ! Handle
  0.9.3;                                  ! Version Identifier

OS:SizingPeriod:DesignDay,
  {3fc207f1-9bf4-4111-9521-998ad30dd202}, ! Handle
  TAMPA Ann Clg 1% Condns WB=>MDB,        ! Name
  30.9,                                   ! Maximum Dry-Bulb Temperature {C}
  7.9,                                    ! Daily Dry-Bulb Temperature Range {deltaC}
  26.6,                                   ! Humidity Indicating Conditions at Maximum Dry-Bulb {BasedOnField A3}
  101289,                                 ! Barometric Pressure {Pa}
  3.9,                                    ! Wind Speed {m/s}
  260,                                    ! Wind Direction {deg}
  0,                                      ! Sky Clearness
  0,                                      ! Rain Indicator
  0,                                      ! Snow Indicator
  21,                                     ! Day of Month
  8,                                      ! Month
  SummerDesignDay,                        ! Day Type
  0,                                      ! Daylight Saving Time Indicator
  Wetbulb,                                ! Humidity Indicating Type
  ,                                       ! Humidity Indicating Day Schedule Name
  DefaultMultipliers,                     ! Dry-Bulb Temperature Range Modifier Type
  ,                                       ! Dry-Bulb Temperature Range Modifier Schedule Name
  ASHRAETau,                              ! Solar Model Indicator
  ,                                       ! Beam Solar Day Schedule Name
  ,                                       ! Diffuse Solar Day Schedule Name
  0.493,                                  ! ASHRAE Taub {dimensionless}
  2.01;                                   ! ASHRAE Taud {dimensionless}

OS:ComponentData,
  {a81c978f-c8d4-4851-8ed2-10445b6912d5}, ! Handle
  Component Data 1,                       ! Name
  {1bcb4a05-2f42-4917-a66a-fc4b29ab69f7}, ! UUID
  {e9f6c04a-2219-4cb6-b5b6-2cca94b5bd46}, ! Version UUID
  1366306930,                             ! Creation Timestamp
  1366306930,                             ! Version Timestamp
  {3fc207f1-9bf4-4111-9521-998ad30dd202}; ! Name of Object 1

