
OS:Version,
  {974d8955-3669-4780-842e-1cd75c6f2f10}, ! Handle
  0.9.3;                                  ! Version Identifier

OS:SizingPeriod:DesignDay,
  {deb36a99-9bf1-4ce2-8121-9ea9c740e010}, ! Handle
  SANTA_MARIA Ann Htg Wind 99% Condns WS=>MCDB, ! Name
  14.5,                                   ! Maximum Dry-Bulb Temperature {C}
  0,                                      ! Daily Dry-Bulb Temperature Range {deltaC}
  14.5,                                   ! Humidity Indicating Conditions at Maximum Dry-Bulb {BasedOnField A3}
  100463,                                 ! Barometric Pressure {Pa}
  9.3,                                    ! Wind Speed {m/s}
  120,                                    ! Wind Direction {deg}
  0,                                      ! Sky Clearness
  0,                                      ! Rain Indicator
  0,                                      ! Snow Indicator
  21,                                     ! Day of Month
  12,                                     ! Month
  WinterDesignDay,                        ! Day Type
  0,                                      ! Daylight Saving Time Indicator
  Wetbulb,                                ! Humidity Indicating Type
  ,                                       ! Humidity Indicating Day Schedule Name
  DefaultMultipliers,                     ! Dry-Bulb Temperature Range Modifier Type
  ,                                       ! Dry-Bulb Temperature Range Modifier Schedule Name
  ASHRAEClearSky;                         ! Solar Model Indicator

OS:ComponentData,
  {6c83903f-1fc3-4c28-a22b-91bf4d46fc39}, ! Handle
  Component Data 1,                       ! Name
  {9ee3ab3e-706b-4f75-9dad-bcdcf384aabb}, ! UUID
  {e9084ac3-0ec4-4aa6-9aad-8086f1a0e5bf}, ! Version UUID
  1366306609,                             ! Creation Timestamp
  1366306609,                             ! Version Timestamp
  {deb36a99-9bf1-4ce2-8121-9ea9c740e010}; ! Name of Object 1

