
OS:Version,
  {a0163236-f1c5-4428-874e-2023edf07dd6}, ! Handle
  0.9.3;                                  ! Version Identifier

OS:SizingPeriod:DesignDay,
  {0e789530-d0bf-46bf-81c3-425f910ef2d2}, ! Handle
  Rhinelander Oneida Ann Clg 2% Condns DB=>MWB, ! Name
  27.3,                                   ! Maximum Dry-Bulb Temperature {C}
  12.8,                                   ! Daily Dry-Bulb Temperature Range {deltaC}
  19.4,                                   ! Humidity Indicating Conditions at Maximum Dry-Bulb {BasedOnField A3}
  95381,                                  ! Barometric Pressure {Pa}
  4.4,                                    ! Wind Speed {m/s}
  210,                                    ! Wind Direction {deg}
  0,                                      ! Sky Clearness
  0,                                      ! Rain Indicator
  0,                                      ! Snow Indicator
  21,                                     ! Day of Month
  7,                                      ! Month
  SummerDesignDay,                        ! Day Type
  0,                                      ! Daylight Saving Time Indicator
  Wetbulb,                                ! Humidity Indicating Type
  ,                                       ! Humidity Indicating Day Schedule Name
  DefaultMultipliers,                     ! Dry-Bulb Temperature Range Modifier Type
  ,                                       ! Dry-Bulb Temperature Range Modifier Schedule Name
  ASHRAETau,                              ! Solar Model Indicator
  ,                                       ! Beam Solar Day Schedule Name
  ,                                       ! Diffuse Solar Day Schedule Name
  0.405,                                  ! ASHRAE Taub {dimensionless}
  2.18;                                   ! ASHRAE Taud {dimensionless}

OS:ComponentData,
  {9a0f1c63-16e8-49f1-b480-7bbe9234836a}, ! Handle
  Component Data 1,                       ! Name
  {2cc0f4cb-cb72-41ae-9254-3ea9d72ff2a1}, ! UUID
  {121e348b-32bd-4a77-a5db-633796bc4325}, ! Version UUID
  1366308092,                             ! Creation Timestamp
  1366308092,                             ! Version Timestamp
  {0e789530-d0bf-46bf-81c3-425f910ef2d2}; ! Name of Object 1

