
OS:Version,
  {4450f078-c483-4d17-a8bf-c32837a1e3b0}, ! Handle
  0.9.3;                                  ! Version Identifier

OS:SizingPeriod:DesignDay,
  {ebe648ea-ae0c-4635-a62a-9950f9ef62b0}, ! Handle
  Millville Municipal Ap Ann Clg 2% Condns DB=>MWB, ! Name
  30.5,                                   ! Maximum Dry-Bulb Temperature {C}
  10.4,                                   ! Daily Dry-Bulb Temperature Range {deltaC}
  22.8,                                   ! Humidity Indicating Conditions at Maximum Dry-Bulb {BasedOnField A3}
  101073,                                 ! Barometric Pressure {Pa}
  4.6,                                    ! Wind Speed {m/s}
  270,                                    ! Wind Direction {deg}
  0,                                      ! Sky Clearness
  0,                                      ! Rain Indicator
  0,                                      ! Snow Indicator
  21,                                     ! Day of Month
  7,                                      ! Month
  SummerDesignDay,                        ! Day Type
  0,                                      ! Daylight Saving Time Indicator
  Wetbulb,                                ! Humidity Indicating Type
  ,                                       ! Humidity Indicating Day Schedule Name
  DefaultMultipliers,                     ! Dry-Bulb Temperature Range Modifier Type
  ,                                       ! Dry-Bulb Temperature Range Modifier Schedule Name
  ASHRAETau,                              ! Solar Model Indicator
  ,                                       ! Beam Solar Day Schedule Name
  ,                                       ! Diffuse Solar Day Schedule Name
  0.564,                                  ! ASHRAE Taub {dimensionless}
  1.747;                                  ! ASHRAE Taud {dimensionless}

OS:ComponentData,
  {7ecd1fd7-424a-4616-85b0-48d1ed6bd134}, ! Handle
  Component Data 1,                       ! Name
  {7c26e5ad-d52f-47c2-bd12-ff9040bd2161}, ! UUID
  {c06c569b-0541-4f28-bc06-428fde4f7054}, ! Version UUID
  1366309318,                             ! Creation Timestamp
  1366309318,                             ! Version Timestamp
  {ebe648ea-ae0c-4635-a62a-9950f9ef62b0}; ! Name of Object 1

