
OS:Version,
  {d7e4e402-747d-41bc-9a5d-441ef553ff24}, ! Handle
  0.9.3;                                  ! Version Identifier

OS:SizingPeriod:DesignDay,
  {5c654a07-3c88-4416-a74f-187055506ae5}, ! Handle
  St Louis Spirit Of St Louis A Ann Clg 1% Condns WB=>MDB, ! Name
  31.7,                                   ! Maximum Dry-Bulb Temperature {C}
  11.1,                                   ! Daily Dry-Bulb Temperature Range {deltaC}
  25.8,                                   ! Humidity Indicating Conditions at Maximum Dry-Bulb {BasedOnField A3}
  99643,                                  ! Barometric Pressure {Pa}
  4.1,                                    ! Wind Speed {m/s}
  220,                                    ! Wind Direction {deg}
  0,                                      ! Sky Clearness
  0,                                      ! Rain Indicator
  0,                                      ! Snow Indicator
  21,                                     ! Day of Month
  7,                                      ! Month
  SummerDesignDay,                        ! Day Type
  0,                                      ! Daylight Saving Time Indicator
  Wetbulb,                                ! Humidity Indicating Type
  ,                                       ! Humidity Indicating Day Schedule Name
  DefaultMultipliers,                     ! Dry-Bulb Temperature Range Modifier Type
  ,                                       ! Dry-Bulb Temperature Range Modifier Schedule Name
  ASHRAETau,                              ! Solar Model Indicator
  ,                                       ! Beam Solar Day Schedule Name
  ,                                       ! Diffuse Solar Day Schedule Name
  0.475,                                  ! ASHRAE Taub {dimensionless}
  1.999;                                  ! ASHRAE Taud {dimensionless}

OS:ComponentData,
  {460224a7-6fef-4e6b-a465-8786b5e58ced}, ! Handle
  Component Data 1,                       ! Name
  {a495f028-6b47-47cb-a6b2-2a3bbed0c06f}, ! UUID
  {f7141537-f5ad-4850-a6f1-39aa8ef802ef}, ! Version UUID
  1366308590,                             ! Creation Timestamp
  1366308590,                             ! Version Timestamp
  {5c654a07-3c88-4416-a74f-187055506ae5}; ! Name of Object 1

