
OS:Version,
  {d3a78b4f-40e4-4e82-9e38-00b4872b0098}, ! Handle
  0.9.3;                                  ! Version Identifier

OS:SizingPeriod:DesignDay,
  {788a80a8-c9dd-477e-86be-9358e6480938}, ! Handle
  PIERRE Ann Clg 2% Condns DP=>MDB,       ! Name
  25.9,                                   ! Maximum Dry-Bulb Temperature {C}
  14.3,                                   ! Daily Dry-Bulb Temperature Range {deltaC}
  19.6,                                   ! Humidity Indicating Conditions at Maximum Dry-Bulb {BasedOnField A3}
  95164,                                  ! Barometric Pressure {Pa}
  6.2,                                    ! Wind Speed {m/s}
  170,                                    ! Wind Direction {deg}
  0,                                      ! Sky Clearness
  0,                                      ! Rain Indicator
  0,                                      ! Snow Indicator
  21,                                     ! Day of Month
  7,                                      ! Month
  SummerDesignDay,                        ! Day Type
  0,                                      ! Daylight Saving Time Indicator
  Dewpoint,                               ! Humidity Indicating Type
  ,                                       ! Humidity Indicating Day Schedule Name
  DefaultMultipliers,                     ! Dry-Bulb Temperature Range Modifier Type
  ,                                       ! Dry-Bulb Temperature Range Modifier Schedule Name
  ASHRAETau,                              ! Solar Model Indicator
  ,                                       ! Beam Solar Day Schedule Name
  ,                                       ! Diffuse Solar Day Schedule Name
  0.427,                                  ! ASHRAE Taub {dimensionless}
  2.103;                                  ! ASHRAE Taud {dimensionless}

OS:ComponentData,
  {494e8e32-ffce-4183-856b-35fc31723e3a}, ! Handle
  Component Data 1,                       ! Name
  {c8214f5a-6ba3-4725-92f7-97c772876f04}, ! UUID
  {b0d03ec5-7be1-41d9-a1e1-535743c5290d}, ! Version UUID
  1366310428,                             ! Creation Timestamp
  1366310428,                             ! Version Timestamp
  {788a80a8-c9dd-477e-86be-9358e6480938}; ! Name of Object 1

