
OS:Version,
  {0517f56a-7161-4910-8ee8-b3f9f4bca4b0}, ! Handle
  0.9.3;                                  ! Version Identifier

OS:SizingPeriod:DesignDay,
  {6d6ac164-79ec-4d2a-90e9-9da37af11bfd}, ! Handle
  WICHITA Ann Clg 2% Condns DP=>MDB,      ! Name
  27,                                     ! Maximum Dry-Bulb Temperature {C}
  12.1,                                   ! Daily Dry-Bulb Temperature Range {deltaC}
  22,                                     ! Humidity Indicating Conditions at Maximum Dry-Bulb {BasedOnField A3}
  96519,                                  ! Barometric Pressure {Pa}
  7.1,                                    ! Wind Speed {m/s}
  190,                                    ! Wind Direction {deg}
  0,                                      ! Sky Clearness
  0,                                      ! Rain Indicator
  0,                                      ! Snow Indicator
  21,                                     ! Day of Month
  7,                                      ! Month
  SummerDesignDay,                        ! Day Type
  0,                                      ! Daylight Saving Time Indicator
  Dewpoint,                               ! Humidity Indicating Type
  ,                                       ! Humidity Indicating Day Schedule Name
  DefaultMultipliers,                     ! Dry-Bulb Temperature Range Modifier Type
  ,                                       ! Dry-Bulb Temperature Range Modifier Schedule Name
  ASHRAETau,                              ! Solar Model Indicator
  ,                                       ! Beam Solar Day Schedule Name
  ,                                       ! Diffuse Solar Day Schedule Name
  0.419,                                  ! ASHRAE Taub {dimensionless}
  2.207;                                  ! ASHRAE Taud {dimensionless}

OS:ComponentData,
  {a1f6b64c-971b-4c26-a09d-4e093305f616}, ! Handle
  Component Data 1,                       ! Name
  {a69bb9cb-fafa-445b-800d-2ded5c29110e}, ! UUID
  {fb8a98d0-043c-4b06-aecc-262b0a3bcd3e}, ! Version UUID
  1366307608,                             ! Creation Timestamp
  1366307608,                             ! Version Timestamp
  {6d6ac164-79ec-4d2a-90e9-9da37af11bfd}; ! Name of Object 1

