
OS:Version,
  {f9d01b95-c372-45ad-8435-848c3d081786}, ! Handle
  0.9.3;                                  ! Version Identifier

OS:SizingPeriod:DesignDay,
  {f6f3f5bf-365e-4ee4-8864-67e3ded0c32d}, ! Handle
  TOPEKA Ann Clg 1% Condns Enth=>MDB,     ! Name
  32.2,                                   ! Maximum Dry-Bulb Temperature {C}
  11.3,                                   ! Daily Dry-Bulb Temperature Range {deltaC}
  79300,                                  ! Humidity Indicating Conditions at Maximum Dry-Bulb {BasedOnField A3}
  98123,                                  ! Barometric Pressure {Pa}
  4.9,                                    ! Wind Speed {m/s}
  200,                                    ! Wind Direction {deg}
  0,                                      ! Sky Clearness
  0,                                      ! Rain Indicator
  0,                                      ! Snow Indicator
  21,                                     ! Day of Month
  7,                                      ! Month
  SummerDesignDay,                        ! Day Type
  0,                                      ! Daylight Saving Time Indicator
  Enthalpy,                               ! Humidity Indicating Type
  ,                                       ! Humidity Indicating Day Schedule Name
  DefaultMultipliers,                     ! Dry-Bulb Temperature Range Modifier Type
  ,                                       ! Dry-Bulb Temperature Range Modifier Schedule Name
  ASHRAETau,                              ! Solar Model Indicator
  ,                                       ! Beam Solar Day Schedule Name
  ,                                       ! Diffuse Solar Day Schedule Name
  0.434,                                  ! ASHRAE Taub {dimensionless}
  2.183;                                  ! ASHRAE Taud {dimensionless}

OS:ComponentData,
  {99f8c938-486b-4716-8712-173cd452a7c1}, ! Handle
  Component Data 1,                       ! Name
  {1541325c-46f2-4926-8f19-5fe6b096890e}, ! UUID
  {e53ce74f-1964-4678-bc4f-4d710dd54963}, ! Version UUID
  1366307592,                             ! Creation Timestamp
  1366307592,                             ! Version Timestamp
  {f6f3f5bf-365e-4ee4-8864-67e3ded0c32d}; ! Name of Object 1

