
OS:Version,
  {6721a93f-5036-437f-932d-146a34d51c45}, ! Handle
  0.9.3;                                  ! Version Identifier

OS:SizingPeriod:DesignDay,
  {03386b7a-e4c2-47ca-b90b-26df5d953edf}, ! Handle
  Salmon Lemhi  Awos Ann Clg 1% Condns WB=>MDB, ! Name
  27.8,                                   ! Maximum Dry-Bulb Temperature {C}
  18.2,                                   ! Daily Dry-Bulb Temperature Range {deltaC}
  16.7,                                   ! Humidity Indicating Conditions at Maximum Dry-Bulb {BasedOnField A3}
  87363,                                  ! Barometric Pressure {Pa}
  3.7,                                    ! Wind Speed {m/s}
  330,                                    ! Wind Direction {deg}
  0,                                      ! Sky Clearness
  0,                                      ! Rain Indicator
  0,                                      ! Snow Indicator
  21,                                     ! Day of Month
  7,                                      ! Month
  SummerDesignDay,                        ! Day Type
  0,                                      ! Daylight Saving Time Indicator
  Wetbulb,                                ! Humidity Indicating Type
  ,                                       ! Humidity Indicating Day Schedule Name
  DefaultMultipliers,                     ! Dry-Bulb Temperature Range Modifier Type
  ,                                       ! Dry-Bulb Temperature Range Modifier Schedule Name
  ASHRAETau,                              ! Solar Model Indicator
  ,                                       ! Beam Solar Day Schedule Name
  ,                                       ! Diffuse Solar Day Schedule Name
  0.376,                                  ! ASHRAE Taub {dimensionless}
  2.269;                                  ! ASHRAE Taud {dimensionless}

OS:ComponentData,
  {e249815c-414b-4c67-af72-ee3765a011b2}, ! Handle
  Component Data 1,                       ! Name
  {8787990b-a8fc-4632-b230-00356839fd49}, ! UUID
  {c381206c-b8c6-4a78-9d68-15d9bf064343}, ! Version UUID
  1366307311,                             ! Creation Timestamp
  1366307311,                             ! Version Timestamp
  {03386b7a-e4c2-47ca-b90b-26df5d953edf}; ! Name of Object 1

