
OS:Version,
  {7ec6a730-f5b0-4d29-830a-c7cd842f3a5d}, ! Handle
  0.9.3;                                  ! Version Identifier

OS:SizingPeriod:DesignDay,
  {2de13e2d-a79c-44d0-a62f-f1a30cc18e58}, ! Handle
  Montgomery Dannelly Field Ann Clg 2% Condns Enth=>MDB, ! Name
  31.2,                                   ! Maximum Dry-Bulb Temperature {C}
  10.9,                                   ! Daily Dry-Bulb Temperature Range {deltaC}
  77900,                                  ! Humidity Indicating Conditions at Maximum Dry-Bulb {BasedOnField A3}
  100582,                                 ! Barometric Pressure {Pa}
  3.1,                                    ! Wind Speed {m/s}
  300,                                    ! Wind Direction {deg}
  0,                                      ! Sky Clearness
  0,                                      ! Rain Indicator
  0,                                      ! Snow Indicator
  21,                                     ! Day of Month
  7,                                      ! Month
  SummerDesignDay,                        ! Day Type
  0,                                      ! Daylight Saving Time Indicator
  Enthalpy,                               ! Humidity Indicating Type
  ,                                       ! Humidity Indicating Day Schedule Name
  DefaultMultipliers,                     ! Dry-Bulb Temperature Range Modifier Type
  ,                                       ! Dry-Bulb Temperature Range Modifier Schedule Name
  ASHRAETau,                              ! Solar Model Indicator
  ,                                       ! Beam Solar Day Schedule Name
  ,                                       ! Diffuse Solar Day Schedule Name
  0.573,                                  ! ASHRAE Taub {dimensionless}
  1.761;                                  ! ASHRAE Taud {dimensionless}

OS:ComponentData,
  {11babdcf-a901-469a-bb38-d4e6b70a2959}, ! Handle
  Component Data 1,                       ! Name
  {65a82999-f904-4f17-9111-76dae4383bc6}, ! UUID
  {22ca9984-de72-4b73-b05d-a5cec8a41db4}, ! Version UUID
  1366305923,                             ! Creation Timestamp
  1366305923,                             ! Version Timestamp
  {2de13e2d-a79c-44d0-a62f-f1a30cc18e58}; ! Name of Object 1

