
OS:Version,
  {154eefd5-21dd-42ac-9ad6-d01caeb52dcf}, ! Handle
  0.9.3;                                  ! Version Identifier

OS:SizingPeriod:DesignDay,
  {90597f23-a555-456b-ac6e-b8b49002834c}, ! Handle
  Wrangell Ann Clg .4% Condns Enth=>MDB,  ! Name
  20.3,                                   ! Maximum Dry-Bulb Temperature {C}
  5.6,                                    ! Daily Dry-Bulb Temperature Range {deltaC}
  43700,                                  ! Humidity Indicating Conditions at Maximum Dry-Bulb {BasedOnField A3}
  101169,                                 ! Barometric Pressure {Pa}
  3.1,                                    ! Wind Speed {m/s}
  310,                                    ! Wind Direction {deg}
  0,                                      ! Sky Clearness
  0,                                      ! Rain Indicator
  0,                                      ! Snow Indicator
  21,                                     ! Day of Month
  7,                                      ! Month
  SummerDesignDay,                        ! Day Type
  0,                                      ! Daylight Saving Time Indicator
  Enthalpy,                               ! Humidity Indicating Type
  ,                                       ! Humidity Indicating Day Schedule Name
  DefaultMultipliers,                     ! Dry-Bulb Temperature Range Modifier Type
  ,                                       ! Dry-Bulb Temperature Range Modifier Schedule Name
  ASHRAETau,                              ! Solar Model Indicator
  ,                                       ! Beam Solar Day Schedule Name
  ,                                       ! Diffuse Solar Day Schedule Name
  0.394,                                  ! ASHRAE Taub {dimensionless}
  2.197;                                  ! ASHRAE Taud {dimensionless}

