
OS:Version,
  {b65f1826-17d0-4175-8b68-3347742d3ec3}, ! Handle
  0.9.3;                                  ! Version Identifier

OS:SizingPeriod:DesignDay,
  {18cb5ac7-9695-483b-a1f7-2fa528d6d82a}, ! Handle
  Redding Municipal Arpt Ann Clg 1% Condns Enth=>MDB, ! Name
  35,                                     ! Maximum Dry-Bulb Temperature {C}
  17.2,                                   ! Daily Dry-Bulb Temperature Range {deltaC}
  62400,                                  ! Humidity Indicating Conditions at Maximum Dry-Bulb {BasedOnField A3}
  99500,                                  ! Barometric Pressure {Pa}
  3.7,                                    ! Wind Speed {m/s}
  160,                                    ! Wind Direction {deg}
  0,                                      ! Sky Clearness
  0,                                      ! Rain Indicator
  0,                                      ! Snow Indicator
  21,                                     ! Day of Month
  7,                                      ! Month
  SummerDesignDay,                        ! Day Type
  0,                                      ! Daylight Saving Time Indicator
  Enthalpy,                               ! Humidity Indicating Type
  ,                                       ! Humidity Indicating Day Schedule Name
  DefaultMultipliers,                     ! Dry-Bulb Temperature Range Modifier Type
  ,                                       ! Dry-Bulb Temperature Range Modifier Schedule Name
  ASHRAETau,                              ! Solar Model Indicator
  ,                                       ! Beam Solar Day Schedule Name
  ,                                       ! Diffuse Solar Day Schedule Name
  0.362,                                  ! ASHRAE Taub {dimensionless}
  2.517;                                  ! ASHRAE Taud {dimensionless}

OS:ComponentData,
  {a30acce4-4946-4a1e-90a1-54bb307395e9}, ! Handle
  Component Data 1,                       ! Name
  {b220ec02-4b49-4832-af21-b6b758e1cb88}, ! UUID
  {5b09c6fb-8d3d-4184-994e-179f862068c5}, ! Version UUID
  1366306554,                             ! Creation Timestamp
  1366306554,                             ! Version Timestamp
  {18cb5ac7-9695-483b-a1f7-2fa528d6d82a}; ! Name of Object 1

