
OS:Version,
  {b796b15c-716a-4df4-925b-7cba4aeb7945}, ! Handle
  0.9.3;                                  ! Version Identifier

OS:SizingPeriod:DesignDay,
  {92c07d7d-c860-4171-b6d0-bd2a353ba275}, ! Handle
  Tacoma Mcchord Afb Ann Htg 99% Condns DB, ! Name
  -4,                                     ! Maximum Dry-Bulb Temperature {C}
  0,                                      ! Daily Dry-Bulb Temperature Range {deltaC}
  -4,                                     ! Humidity Indicating Conditions at Maximum Dry-Bulb {BasedOnField A3}
  100272,                                 ! Barometric Pressure {Pa}
  1.3,                                    ! Wind Speed {m/s}
  170,                                    ! Wind Direction {deg}
  0,                                      ! Sky Clearness
  0,                                      ! Rain Indicator
  0,                                      ! Snow Indicator
  21,                                     ! Day of Month
  12,                                     ! Month
  WinterDesignDay,                        ! Day Type
  0,                                      ! Daylight Saving Time Indicator
  Wetbulb,                                ! Humidity Indicating Type
  ,                                       ! Humidity Indicating Day Schedule Name
  DefaultMultipliers,                     ! Dry-Bulb Temperature Range Modifier Type
  ,                                       ! Dry-Bulb Temperature Range Modifier Schedule Name
  ASHRAEClearSky;                         ! Solar Model Indicator

OS:ComponentData,
  {243c5e6a-7966-44de-a749-2cc1e4707c38}, ! Handle
  Component Data 1,                       ! Name
  {37e60520-2a69-443c-a945-093e91b28baf}, ! UUID
  {cd7450b5-12ea-4646-aa2d-8ac3fde85f59}, ! Version UUID
  1366311405,                             ! Creation Timestamp
  1366311405,                             ! Version Timestamp
  {92c07d7d-c860-4171-b6d0-bd2a353ba275}; ! Name of Object 1

