
OS:Version,
  {7bb40d3e-b6ac-4276-bad3-67855764e784}, ! Handle
  0.9.3;                                  ! Version Identifier

OS:SizingPeriod:DesignDay,
  {f92f18b2-6890-495d-a30e-ce38cac2829c}, ! Handle
  Victoria Regional Ap Ann Clg 2% Condns DB=>MWB, ! Name
  34.1,                                   ! Maximum Dry-Bulb Temperature {C}
  10.6,                                   ! Daily Dry-Bulb Temperature Range {deltaC}
  24.8,                                   ! Humidity Indicating Conditions at Maximum Dry-Bulb {BasedOnField A3}
  100905,                                 ! Barometric Pressure {Pa}
  4.9,                                    ! Wind Speed {m/s}
  170,                                    ! Wind Direction {deg}
  0,                                      ! Sky Clearness
  0,                                      ! Rain Indicator
  0,                                      ! Snow Indicator
  21,                                     ! Day of Month
  8,                                      ! Month
  SummerDesignDay,                        ! Day Type
  0,                                      ! Daylight Saving Time Indicator
  Wetbulb,                                ! Humidity Indicating Type
  ,                                       ! Humidity Indicating Day Schedule Name
  DefaultMultipliers,                     ! Dry-Bulb Temperature Range Modifier Type
  ,                                       ! Dry-Bulb Temperature Range Modifier Schedule Name
  ASHRAETau,                              ! Solar Model Indicator
  ,                                       ! Beam Solar Day Schedule Name
  ,                                       ! Diffuse Solar Day Schedule Name
  0.474,                                  ! ASHRAE Taub {dimensionless}
  2.062;                                  ! ASHRAE Taud {dimensionless}

OS:ComponentData,
  {25c1330f-2f36-4bfd-9e40-03d3d8e89406}, ! Handle
  Component Data 1,                       ! Name
  {c09b5100-19da-4115-9d27-39d9175be90a}, ! UUID
  {5331cc54-b6c2-4d3c-9bf6-6018f7adf6de}, ! Version UUID
  1366310912,                             ! Creation Timestamp
  1366310912,                             ! Version Timestamp
  {f92f18b2-6890-495d-a30e-ce38cac2829c}; ! Name of Object 1

