
OS:Version,
  {b6a50010-60fc-4848-b690-cafbdd0be635}, ! Handle
  0.9.3;                                  ! Version Identifier

OS:SizingPeriod:DesignDay,
  {27aa5033-7ac7-44e9-9812-67e115ca2fb2}, ! Handle
  Trinidad Las Animas County Ap Ann Hum_n 99% Condns DP=>MCDB, ! Name
  -7,                                     ! Maximum Dry-Bulb Temperature {C}
  0,                                      ! Daily Dry-Bulb Temperature Range {deltaC}
  -19.1,                                  ! Humidity Indicating Conditions at Maximum Dry-Bulb {BasedOnField A3}
  81984,                                  ! Barometric Pressure {Pa}
  3,                                      ! Wind Speed {m/s}
  270,                                    ! Wind Direction {deg}
  0,                                      ! Sky Clearness
  0,                                      ! Rain Indicator
  0,                                      ! Snow Indicator
  21,                                     ! Day of Month
  12,                                     ! Month
  WinterDesignDay,                        ! Day Type
  0,                                      ! Daylight Saving Time Indicator
  Dewpoint,                               ! Humidity Indicating Type
  ,                                       ! Humidity Indicating Day Schedule Name
  DefaultMultipliers,                     ! Dry-Bulb Temperature Range Modifier Type
  ,                                       ! Dry-Bulb Temperature Range Modifier Schedule Name
  ASHRAEClearSky;                         ! Solar Model Indicator

OS:ComponentData,
  {ea01c8c7-1dd7-4611-a816-42bf5303815d}, ! Handle
  Component Data 1,                       ! Name
  {4aa73f46-d963-4c81-ae21-8d8145a680d5}, ! UUID
  {fc81e150-1cc1-4181-9533-a75de593e6f5}, ! Version UUID
  1366306743,                             ! Creation Timestamp
  1366306743,                             ! Version Timestamp
  {27aa5033-7ac7-44e9-9812-67e115ca2fb2}; ! Name of Object 1

