
OS:Version,
  {40e4a035-95cc-478f-9b9a-5f01f801c424}, ! Handle
  0.9.3;                                  ! Version Identifier

OS:SizingPeriod:DesignDay,
  {88fc0664-0ca7-4713-845a-26d04b9373e4}, ! Handle
  Newark Ann Hum_n 99.6% Condns DP=>MCDB, ! Name
  -9.8,                                   ! Maximum Dry-Bulb Temperature {C}
  0,                                      ! Daily Dry-Bulb Temperature Range {deltaC}
  -20.9,                                  ! Humidity Indicating Conditions at Maximum Dry-Bulb {BasedOnField A3}
  101217,                                 ! Barometric Pressure {Pa}
  6.2,                                    ! Wind Speed {m/s}
  320,                                    ! Wind Direction {deg}
  0,                                      ! Sky Clearness
  0,                                      ! Rain Indicator
  0,                                      ! Snow Indicator
  21,                                     ! Day of Month
  1,                                      ! Month
  WinterDesignDay,                        ! Day Type
  0,                                      ! Daylight Saving Time Indicator
  Dewpoint,                               ! Humidity Indicating Type
  ,                                       ! Humidity Indicating Day Schedule Name
  DefaultMultipliers,                     ! Dry-Bulb Temperature Range Modifier Type
  ,                                       ! Dry-Bulb Temperature Range Modifier Schedule Name
  ASHRAEClearSky;                         ! Solar Model Indicator

OS:ComponentData,
  {80ecf91f-60a7-45e5-b9df-6aa0943bc480}, ! Handle
  Component Data 1,                       ! Name
  {5d64b0eb-89e4-47a1-93f0-5e8430f3377b}, ! UUID
  {ae9fb3cb-12d2-412a-83d5-f34cd7ea1b57}, ! Version UUID
  1366309331,                             ! Creation Timestamp
  1366309331,                             ! Version Timestamp
  {88fc0664-0ca7-4713-845a-26d04b9373e4}; ! Name of Object 1

