
OS:Version,
  {0bfe283d-5df2-49dd-8f0e-a02884a2dd82}, ! Handle
  0.9.3;                                  ! Version Identifier

OS:SizingPeriod:DesignDay,
  {ed4dcce6-bc75-4385-89a7-9a7bf9219342}, ! Handle
  ROANOKE Ann Clg 1% Condns DP=>MDB,      ! Name
  25.8,                                   ! Maximum Dry-Bulb Temperature {C}
  10.6,                                   ! Daily Dry-Bulb Temperature Range {deltaC}
  21.8,                                   ! Humidity Indicating Conditions at Maximum Dry-Bulb {BasedOnField A3}
  97098,                                  ! Barometric Pressure {Pa}
  4,                                      ! Wind Speed {m/s}
  280,                                    ! Wind Direction {deg}
  0,                                      ! Sky Clearness
  0,                                      ! Rain Indicator
  0,                                      ! Snow Indicator
  21,                                     ! Day of Month
  7,                                      ! Month
  SummerDesignDay,                        ! Day Type
  0,                                      ! Daylight Saving Time Indicator
  Dewpoint,                               ! Humidity Indicating Type
  ,                                       ! Humidity Indicating Day Schedule Name
  DefaultMultipliers,                     ! Dry-Bulb Temperature Range Modifier Type
  ,                                       ! Dry-Bulb Temperature Range Modifier Schedule Name
  ASHRAETau,                              ! Solar Model Indicator
  ,                                       ! Beam Solar Day Schedule Name
  ,                                       ! Diffuse Solar Day Schedule Name
  0.529,                                  ! ASHRAE Taub {dimensionless}
  1.818;                                  ! ASHRAE Taud {dimensionless}

OS:ComponentData,
  {df166347-87ac-4ba3-a742-00a55671bd19}, ! Handle
  Component Data 1,                       ! Name
  {7e34c7aa-a9ff-471e-bdfd-8c1db399edb2}, ! UUID
  {ff15638f-8c72-45e0-a880-0c741dceedd9}, ! Version UUID
  1366311181,                             ! Creation Timestamp
  1366311181,                             ! Version Timestamp
  {ed4dcce6-bc75-4385-89a7-9a7bf9219342}; ! Name of Object 1

