
OS:Version,
  {73dff517-1bb6-4d45-bade-1a5f36148eda}, ! Handle
  0.9.3;                                  ! Version Identifier

OS:SizingPeriod:DesignDay,
  {d834159e-87d1-4aa2-8dd2-50dac43bad9d}, ! Handle
  NORFOLK Ann Clg 1% Condns WB=>MDB,      ! Name
  30.8,                                   ! Maximum Dry-Bulb Temperature {C}
  11.9,                                   ! Daily Dry-Bulb Temperature Range {deltaC}
  24.3,                                   ! Humidity Indicating Conditions at Maximum Dry-Bulb {BasedOnField A3}
  95793,                                  ! Barometric Pressure {Pa}
  6.5,                                    ! Wind Speed {m/s}
  190,                                    ! Wind Direction {deg}
  0,                                      ! Sky Clearness
  0,                                      ! Rain Indicator
  0,                                      ! Snow Indicator
  21,                                     ! Day of Month
  7,                                      ! Month
  SummerDesignDay,                        ! Day Type
  0,                                      ! Daylight Saving Time Indicator
  Wetbulb,                                ! Humidity Indicating Type
  ,                                       ! Humidity Indicating Day Schedule Name
  DefaultMultipliers,                     ! Dry-Bulb Temperature Range Modifier Type
  ,                                       ! Dry-Bulb Temperature Range Modifier Schedule Name
  ASHRAETau,                              ! Solar Model Indicator
  ,                                       ! Beam Solar Day Schedule Name
  ,                                       ! Diffuse Solar Day Schedule Name
  0.402,                                  ! ASHRAE Taub {dimensionless}
  2.247;                                  ! ASHRAE Taud {dimensionless}

OS:ComponentData,
  {d4a7501c-90ff-4ce6-aa9e-29d7da57c0fd}, ! Handle
  Component Data 1,                       ! Name
  {be7d1ded-f07d-4f9d-bfa2-ab4e22380615}, ! UUID
  {19290109-73f1-4abf-ac60-e98274f318ce}, ! Version UUID
  1366309153,                             ! Creation Timestamp
  1366309153,                             ! Version Timestamp
  {d834159e-87d1-4aa2-8dd2-50dac43bad9d}; ! Name of Object 1

