
OS:Version,
  {f74a1c5d-e79b-427c-ae13-8ce6ea9d2ec7}, ! Handle
  0.9.3;                                  ! Version Identifier

OS:SizingPeriod:DesignDay,
  {7aa8ad78-9600-4e7a-9a70-4a313a37ec31}, ! Handle
  Norfolk Nas Ann Clg 2% Condns WB=>MDB,  ! Name
  30.1,                                   ! Maximum Dry-Bulb Temperature {C}
  7.9,                                    ! Daily Dry-Bulb Temperature Range {deltaC}
  25.4,                                   ! Humidity Indicating Conditions at Maximum Dry-Bulb {BasedOnField A3}
  101205,                                 ! Barometric Pressure {Pa}
  4.3,                                    ! Wind Speed {m/s}
  210,                                    ! Wind Direction {deg}
  0,                                      ! Sky Clearness
  0,                                      ! Rain Indicator
  0,                                      ! Snow Indicator
  21,                                     ! Day of Month
  7,                                      ! Month
  SummerDesignDay,                        ! Day Type
  0,                                      ! Daylight Saving Time Indicator
  Wetbulb,                                ! Humidity Indicating Type
  ,                                       ! Humidity Indicating Day Schedule Name
  DefaultMultipliers,                     ! Dry-Bulb Temperature Range Modifier Type
  ,                                       ! Dry-Bulb Temperature Range Modifier Schedule Name
  ASHRAETau,                              ! Solar Model Indicator
  ,                                       ! Beam Solar Day Schedule Name
  ,                                       ! Diffuse Solar Day Schedule Name
  0.593,                                  ! ASHRAE Taub {dimensionless}
  1.694;                                  ! ASHRAE Taud {dimensionless}

OS:ComponentData,
  {072443be-32a6-4dae-a003-f4f5001477b0}, ! Handle
  Component Data 1,                       ! Name
  {0b500439-c2b7-4912-90bc-746907bc2566}, ! UUID
  {c1c12c67-2ad0-4e12-9b2d-109fc0a299f0}, ! Version UUID
  1366311140,                             ! Creation Timestamp
  1366311140,                             ! Version Timestamp
  {7aa8ad78-9600-4e7a-9a70-4a313a37ec31}; ! Name of Object 1

