
OS:Version,
  {65efbc72-304c-4c81-a3b2-3b96dbefce7c}, ! Handle
  0.9.3;                                  ! Version Identifier

OS:SizingPeriod:DesignDay,
  {0544beaa-4e4b-4918-97b2-73cab7dc39df}, ! Handle
  Peoria Greater Peoria Ap Ann Htg 99.6% Condns DB, ! Name
  -19.8,                                  ! Maximum Dry-Bulb Temperature {C}
  0,                                      ! Daily Dry-Bulb Temperature Range {deltaC}
  -19.8,                                  ! Humidity Indicating Conditions at Maximum Dry-Bulb {BasedOnField A3}
  98957,                                  ! Barometric Pressure {Pa}
  4,                                      ! Wind Speed {m/s}
  280,                                    ! Wind Direction {deg}
  0,                                      ! Sky Clearness
  0,                                      ! Rain Indicator
  0,                                      ! Snow Indicator
  21,                                     ! Day of Month
  1,                                      ! Month
  WinterDesignDay,                        ! Day Type
  0,                                      ! Daylight Saving Time Indicator
  Wetbulb,                                ! Humidity Indicating Type
  ,                                       ! Humidity Indicating Day Schedule Name
  DefaultMultipliers,                     ! Dry-Bulb Temperature Range Modifier Type
  ,                                       ! Dry-Bulb Temperature Range Modifier Schedule Name
  ASHRAEClearSky;                         ! Solar Model Indicator

OS:ComponentData,
  {e1e3797a-ff62-4a38-bc5a-cc84f083e0e3}, ! Handle
  Component Data 1,                       ! Name
  {a875147e-3014-4e57-9c06-81f132a9b128}, ! UUID
  {004fb1f3-05d4-41b3-bc7a-f7d058136b07}, ! Version UUID
  1366307379,                             ! Creation Timestamp
  1366307379,                             ! Version Timestamp
  {0544beaa-4e4b-4918-97b2-73cab7dc39df}; ! Name of Object 1

