
OS:Version,
  {ecb7e848-7826-4e63-adba-b2f4cf9e4883}, ! Handle
  0.9.3;                                  ! Version Identifier

OS:SizingPeriod:DesignDay,
  {426963cd-a82d-43f5-8058-c42ec45f5766}, ! Handle
  Webster City Ann Clg 1% Condns DP=>MDB, ! Name
  29.9,                                   ! Maximum Dry-Bulb Temperature {C}
  11,                                     ! Daily Dry-Bulb Temperature Range {deltaC}
  25,                                     ! Humidity Indicating Conditions at Maximum Dry-Bulb {BasedOnField A3}
  97283,                                  ! Barometric Pressure {Pa}
  5.8,                                    ! Wind Speed {m/s}
  200,                                    ! Wind Direction {deg}
  0,                                      ! Sky Clearness
  0,                                      ! Rain Indicator
  0,                                      ! Snow Indicator
  21,                                     ! Day of Month
  7,                                      ! Month
  SummerDesignDay,                        ! Day Type
  0,                                      ! Daylight Saving Time Indicator
  Dewpoint,                               ! Humidity Indicating Type
  ,                                       ! Humidity Indicating Day Schedule Name
  DefaultMultipliers,                     ! Dry-Bulb Temperature Range Modifier Type
  ,                                       ! Dry-Bulb Temperature Range Modifier Schedule Name
  ASHRAETau,                              ! Solar Model Indicator
  ,                                       ! Beam Solar Day Schedule Name
  ,                                       ! Diffuse Solar Day Schedule Name
  0.412,                                  ! ASHRAE Taub {dimensionless}
  2.206;                                  ! ASHRAE Taud {dimensionless}

OS:ComponentData,
  {64ad7a54-75ee-4e60-8d2b-31a82760ebba}, ! Handle
  Component Data 1,                       ! Name
  {d827d5da-388b-483a-a0d4-c83a88015700}, ! UUID
  {cb5c3b06-cd89-4e4f-b189-b18529a153c5}, ! Version UUID
  1366307259,                             ! Creation Timestamp
  1366307259,                             ! Version Timestamp
  {426963cd-a82d-43f5-8058-c42ec45f5766}; ! Name of Object 1

