
OS:Version,
  {b46f7dec-3f38-4bc9-9fd1-5719c559f9db}, ! Handle
  0.9.3;                                  ! Version Identifier

OS:SizingPeriod:DesignDay,
  {cada6e23-ece3-44ed-870b-c63cbcf1c61f}, ! Handle
  Whidbey Island NAS Ann Clg 1% Condns Enth=>MDB, ! Name
  20,                                     ! Maximum Dry-Bulb Temperature {C}
  7.8,                                    ! Daily Dry-Bulb Temperature Range {deltaC}
  45300,                                  ! Humidity Indicating Conditions at Maximum Dry-Bulb {BasedOnField A3}
  101205,                                 ! Barometric Pressure {Pa}
  3,                                      ! Wind Speed {m/s}
  260,                                    ! Wind Direction {deg}
  0,                                      ! Sky Clearness
  0,                                      ! Rain Indicator
  0,                                      ! Snow Indicator
  21,                                     ! Day of Month
  8,                                      ! Month
  SummerDesignDay,                        ! Day Type
  0,                                      ! Daylight Saving Time Indicator
  Enthalpy,                               ! Humidity Indicating Type
  ,                                       ! Humidity Indicating Day Schedule Name
  DefaultMultipliers,                     ! Dry-Bulb Temperature Range Modifier Type
  ,                                       ! Dry-Bulb Temperature Range Modifier Schedule Name
  ASHRAETau,                              ! Solar Model Indicator
  ,                                       ! Beam Solar Day Schedule Name
  ,                                       ! Diffuse Solar Day Schedule Name
  0.356,                                  ! ASHRAE Taub {dimensionless}
  2.524;                                  ! ASHRAE Taud {dimensionless}

OS:ComponentData,
  {bb4856ab-39b5-41be-8b4a-2cf3a58e6a21}, ! Handle
  Component Data 1,                       ! Name
  {eb1c6c8b-9994-4d4a-9117-64d1c67318e9}, ! UUID
  {5cbb460d-c9f3-46fd-8cb8-8fe72e6d2a4a}, ! Version UUID
  1366311433,                             ! Creation Timestamp
  1366311433,                             ! Version Timestamp
  {cada6e23-ece3-44ed-870b-c63cbcf1c61f}; ! Name of Object 1

