
OS:Version,
  {aa0ef25a-a5b9-4ff1-b24f-fe54abe4d295}, ! Handle
  0.9.3;                                  ! Version Identifier

OS:SizingPeriod:DesignDay,
  {24b1f579-b3fb-4aa3-9359-9b5014b8552f}, ! Handle
  Miami Kendall Tamia Ann Htg 99.6% Condns DB, ! Name
  7.4,                                    ! Maximum Dry-Bulb Temperature {C}
  0,                                      ! Daily Dry-Bulb Temperature Range {deltaC}
  7.4,                                    ! Humidity Indicating Conditions at Maximum Dry-Bulb {BasedOnField A3}
  101289,                                 ! Barometric Pressure {Pa}
  3.2,                                    ! Wind Speed {m/s}
  350,                                    ! Wind Direction {deg}
  0,                                      ! Sky Clearness
  0,                                      ! Rain Indicator
  0,                                      ! Snow Indicator
  21,                                     ! Day of Month
  1,                                      ! Month
  WinterDesignDay,                        ! Day Type
  0,                                      ! Daylight Saving Time Indicator
  Wetbulb,                                ! Humidity Indicating Type
  ,                                       ! Humidity Indicating Day Schedule Name
  DefaultMultipliers,                     ! Dry-Bulb Temperature Range Modifier Type
  ,                                       ! Dry-Bulb Temperature Range Modifier Schedule Name
  ASHRAEClearSky;                         ! Solar Model Indicator

OS:ComponentData,
  {5d2ffb53-56e6-4423-a0c0-ef2b54eb342a}, ! Handle
  Component Data 1,                       ! Name
  {0cdd95e1-ab7d-43a2-ba9f-19b7c9d9bc83}, ! UUID
  {d2ce3b36-95c0-4e0d-bd3c-92bc5718af94}, ! Version UUID
  1366306855,                             ! Creation Timestamp
  1366306855,                             ! Version Timestamp
  {24b1f579-b3fb-4aa3-9359-9b5014b8552f}; ! Name of Object 1

