
OS:Version,
  {b656aba9-6306-4417-a7d7-0fd9884b3b87}, ! Handle
  0.9.3;                                  ! Version Identifier

OS:SizingPeriod:DesignDay,
  {88668270-8e35-4d34-8351-53c5cfbcc71f}, ! Handle
  WILLIAMSPORT Ann Htg 99.6% Condns DB,   ! Name
  -15.3,                                  ! Maximum Dry-Bulb Temperature {C}
  0,                                      ! Daily Dry-Bulb Temperature Range {deltaC}
  -15.3,                                  ! Humidity Indicating Conditions at Maximum Dry-Bulb {BasedOnField A3}
  98440,                                  ! Barometric Pressure {Pa}
  3.1,                                    ! Wind Speed {m/s}
  280,                                    ! Wind Direction {deg}
  0,                                      ! Sky Clearness
  0,                                      ! Rain Indicator
  0,                                      ! Snow Indicator
  21,                                     ! Day of Month
  1,                                      ! Month
  WinterDesignDay,                        ! Day Type
  0,                                      ! Daylight Saving Time Indicator
  Wetbulb,                                ! Humidity Indicating Type
  ,                                       ! Humidity Indicating Day Schedule Name
  DefaultMultipliers,                     ! Dry-Bulb Temperature Range Modifier Type
  ,                                       ! Dry-Bulb Temperature Range Modifier Schedule Name
  ASHRAEClearSky;                         ! Solar Model Indicator

OS:ComponentData,
  {f035a612-f112-4bb9-b865-cbd58a062059}, ! Handle
  Component Data 1,                       ! Name
  {cb361788-1f3a-4287-a901-81717d278f20}, ! UUID
  {3b1ccaa7-f822-4724-8f81-fdf1a15b2a9c}, ! Version UUID
  1366310274,                             ! Creation Timestamp
  1366310274,                             ! Version Timestamp
  {88668270-8e35-4d34-8351-53c5cfbcc71f}; ! Name of Object 1

