
OS:Version,
  {c6035673-1f64-4fbd-aefa-8e5327647600}, ! Handle
  0.9.3;                                  ! Version Identifier

OS:SizingPeriod:DesignDay,
  {0c4ca3a2-f9f1-46b5-8c28-b2f5267d1d9f}, ! Handle
  Macon Ann Clg 1% Condns WB=>MDB,        ! Name
  31.7,                                   ! Maximum Dry-Bulb Temperature {C}
  11.1,                                   ! Daily Dry-Bulb Temperature Range {deltaC}
  25.6,                                   ! Humidity Indicating Conditions at Maximum Dry-Bulb {BasedOnField A3}
  100011,                                 ! Barometric Pressure {Pa}
  3.6,                                    ! Wind Speed {m/s}
  300,                                    ! Wind Direction {deg}
  0,                                      ! Sky Clearness
  0,                                      ! Rain Indicator
  0,                                      ! Snow Indicator
  21,                                     ! Day of Month
  7,                                      ! Month
  SummerDesignDay,                        ! Day Type
  0,                                      ! Daylight Saving Time Indicator
  Wetbulb,                                ! Humidity Indicating Type
  ,                                       ! Humidity Indicating Day Schedule Name
  DefaultMultipliers,                     ! Dry-Bulb Temperature Range Modifier Type
  ,                                       ! Dry-Bulb Temperature Range Modifier Schedule Name
  ASHRAETau,                              ! Solar Model Indicator
  ,                                       ! Beam Solar Day Schedule Name
  ,                                       ! Diffuse Solar Day Schedule Name
  0.549,                                  ! ASHRAE Taub {dimensionless}
  1.812;                                  ! ASHRAE Taud {dimensionless}

OS:ComponentData,
  {2b7fe2ee-156a-412a-b668-5e2eb26a716a}, ! Handle
  Component Data 1,                       ! Name
  {e5d66697-f9c4-4608-88ca-18b98c880feb}, ! UUID
  {46b12633-bd84-49f7-a74f-d9b945550c30}, ! Version UUID
  1366307016,                             ! Creation Timestamp
  1366307016,                             ! Version Timestamp
  {0c4ca3a2-f9f1-46b5-8c28-b2f5267d1d9f}; ! Name of Object 1

