
OS:Version,
  {cbd08802-f505-4569-9d96-8ad4097f33b9}, ! Handle
  0.9.3;                                  ! Version Identifier

OS:SizingPeriod:DesignDay,
  {4c672b7f-4e12-454a-8412-c6fb6c47f3d9}, ! Handle
  Rockford Greater Rockford Ap Ann Clg .4% Condns DB=>MWB, ! Name
  33.1,                                   ! Maximum Dry-Bulb Temperature {C}
  11,                                     ! Daily Dry-Bulb Temperature Range {deltaC}
  23.9,                                   ! Humidity Indicating Conditions at Maximum Dry-Bulb {BasedOnField A3}
  98675,                                  ! Barometric Pressure {Pa}
  5.3,                                    ! Wind Speed {m/s}
  210,                                    ! Wind Direction {deg}
  0,                                      ! Sky Clearness
  0,                                      ! Rain Indicator
  0,                                      ! Snow Indicator
  21,                                     ! Day of Month
  7,                                      ! Month
  SummerDesignDay,                        ! Day Type
  0,                                      ! Daylight Saving Time Indicator
  Wetbulb,                                ! Humidity Indicating Type
  ,                                       ! Humidity Indicating Day Schedule Name
  DefaultMultipliers,                     ! Dry-Bulb Temperature Range Modifier Type
  ,                                       ! Dry-Bulb Temperature Range Modifier Schedule Name
  ASHRAETau,                              ! Solar Model Indicator
  ,                                       ! Beam Solar Day Schedule Name
  ,                                       ! Diffuse Solar Day Schedule Name
  0.445,                                  ! ASHRAE Taub {dimensionless}
  2.082;                                  ! ASHRAE Taud {dimensionless}

OS:ComponentData,
  {7a1ab0c7-cb66-4e0b-9083-7794e202196f}, ! Handle
  Component Data 1,                       ! Name
  {aebd8c0c-f3b8-4c50-8b81-36f524cff2c9}, ! UUID
  {23981e62-0acd-4b75-a72e-4d7b728c5c06}, ! Version UUID
  1366307392,                             ! Creation Timestamp
  1366307392,                             ! Version Timestamp
  {4c672b7f-4e12-454a-8412-c6fb6c47f3d9}; ! Name of Object 1

