
OS:Version,
  {df6c8d30-fc91-4e39-a25d-1f07d0b7a2d4}, ! Handle
  0.9.3;                                  ! Version Identifier

OS:SizingPeriod:DesignDay,
  {98584948-34bc-429b-a241-ec84d75877ba}, ! Handle
  Yuma Ann Clg .4% Condns DP=>MDB,        ! Name
  30.8,                                   ! Maximum Dry-Bulb Temperature {C}
  13.1,                                   ! Daily Dry-Bulb Temperature Range {deltaC}
  24.1,                                   ! Humidity Indicating Conditions at Maximum Dry-Bulb {BasedOnField A3}
  100582,                                 ! Barometric Pressure {Pa}
  3.3,                                    ! Wind Speed {m/s}
  270,                                    ! Wind Direction {deg}
  0,                                      ! Sky Clearness
  0,                                      ! Rain Indicator
  0,                                      ! Snow Indicator
  21,                                     ! Day of Month
  7,                                      ! Month
  SummerDesignDay,                        ! Day Type
  0,                                      ! Daylight Saving Time Indicator
  Dewpoint,                               ! Humidity Indicating Type
  ,                                       ! Humidity Indicating Day Schedule Name
  DefaultMultipliers,                     ! Dry-Bulb Temperature Range Modifier Type
  ,                                       ! Dry-Bulb Temperature Range Modifier Schedule Name
  ASHRAETau,                              ! Solar Model Indicator
  ,                                       ! Beam Solar Day Schedule Name
  ,                                       ! Diffuse Solar Day Schedule Name
  0.533,                                  ! ASHRAE Taub {dimensionless}
  1.764;                                  ! ASHRAE Taud {dimensionless}

OS:ComponentData,
  {a8eeeb28-1bba-4008-8c86-6eddae08afaf}, ! Handle
  Component Data 1,                       ! Name
  {90077018-e6c3-4b4f-a01d-023a6c47ae94}, ! UUID
  {ab9c536f-b7e4-40ab-aa03-95cb8e9c76d3}, ! Version UUID
  1366306335,                             ! Creation Timestamp
  1366306335,                             ! Version Timestamp
  {98584948-34bc-429b-a241-ec84d75877ba}; ! Name of Object 1

