
OS:Version,
  {19e0ea2b-69ff-45b5-a5b6-3a77f49edd69}, ! Handle
  0.9.3;                                  ! Version Identifier

OS:SizingPeriod:DesignDay,
  {25855c4e-13c4-43fb-8aab-17dec54bf9fc}, ! Handle
  Portland International Ap Ann Clg .4% Condns DB=>MWB, ! Name
  32.9,                                   ! Maximum Dry-Bulb Temperature {C}
  12.2,                                   ! Daily Dry-Bulb Temperature Range {deltaC}
  19.7,                                   ! Humidity Indicating Conditions at Maximum Dry-Bulb {BasedOnField A3}
  101253,                                 ! Barometric Pressure {Pa}
  4.7,                                    ! Wind Speed {m/s}
  310,                                    ! Wind Direction {deg}
  0,                                      ! Sky Clearness
  0,                                      ! Rain Indicator
  0,                                      ! Snow Indicator
  21,                                     ! Day of Month
  8,                                      ! Month
  SummerDesignDay,                        ! Day Type
  0,                                      ! Daylight Saving Time Indicator
  Wetbulb,                                ! Humidity Indicating Type
  ,                                       ! Humidity Indicating Day Schedule Name
  DefaultMultipliers,                     ! Dry-Bulb Temperature Range Modifier Type
  ,                                       ! Dry-Bulb Temperature Range Modifier Schedule Name
  ASHRAETau,                              ! Solar Model Indicator
  ,                                       ! Beam Solar Day Schedule Name
  ,                                       ! Diffuse Solar Day Schedule Name
  0.358,                                  ! ASHRAE Taub {dimensionless}
  2.549;                                  ! ASHRAE Taud {dimensionless}

OS:ComponentData,
  {025b3655-8b5f-44e4-bbcb-afb8b16a59ad}, ! Handle
  Component Data 1,                       ! Name
  {77fefeb4-0f2e-42e6-8deb-9053d1f1aea7}, ! UUID
  {21267ff9-c3cc-4f30-9c3c-62205e5a07de}, ! Version UUID
  1366310087,                             ! Creation Timestamp
  1366310087,                             ! Version Timestamp
  {25855c4e-13c4-43fb-8aab-17dec54bf9fc}; ! Name of Object 1

