
OS:Version,
  {b6821ddb-c992-45aa-829a-e2b2e52798eb}, ! Handle
  0.9.3;                                  ! Version Identifier

OS:SizingPeriod:DesignDay,
  {7f8d1e05-f145-4723-933d-cee12214d3af}, ! Handle
  Winchester Rgnl Ann Hum_n 99.6% Condns DP=>MCDB, ! Name
  -7.8,                                   ! Maximum Dry-Bulb Temperature {C}
  0,                                      ! Daily Dry-Bulb Temperature Range {deltaC}
  -17.6,                                  ! Humidity Indicating Conditions at Maximum Dry-Bulb {BasedOnField A3}
  98686,                                  ! Barometric Pressure {Pa}
  3.4,                                    ! Wind Speed {m/s}
  320,                                    ! Wind Direction {deg}
  0,                                      ! Sky Clearness
  0,                                      ! Rain Indicator
  0,                                      ! Snow Indicator
  21,                                     ! Day of Month
  1,                                      ! Month
  WinterDesignDay,                        ! Day Type
  0,                                      ! Daylight Saving Time Indicator
  Dewpoint,                               ! Humidity Indicating Type
  ,                                       ! Humidity Indicating Day Schedule Name
  DefaultMultipliers,                     ! Dry-Bulb Temperature Range Modifier Type
  ,                                       ! Dry-Bulb Temperature Range Modifier Schedule Name
  ASHRAEClearSky;                         ! Solar Model Indicator

OS:ComponentData,
  {e2137f0c-cefc-4b95-baeb-7c0b43daca5a}, ! Handle
  Component Data 1,                       ! Name
  {62f8a8c8-6680-4973-96fb-2545ca5321ea}, ! UUID
  {12d18770-b4b5-403c-81f6-386572673d5f}, ! Version UUID
  1366311223,                             ! Creation Timestamp
  1366311223,                             ! Version Timestamp
  {7f8d1e05-f145-4723-933d-cee12214d3af}; ! Name of Object 1

