
OS:Version,
  {56ea5f3b-89a4-432f-84ab-95e1461f94cf}, ! Handle
  0.9.3;                                  ! Version Identifier

OS:SizingPeriod:DesignDay,
  {0a633299-ff39-467b-8561-de8b6353c389}, ! Handle
  Pendleton E Or Regional Ap Ann Hum_n 99.6% Condns DP=>MCDB, ! Name
  -12.4,                                  ! Maximum Dry-Bulb Temperature {C}
  0,                                      ! Daily Dry-Bulb Temperature Range {deltaC}
  -17.1,                                  ! Humidity Indicating Conditions at Maximum Dry-Bulb {BasedOnField A3}
  96012,                                  ! Barometric Pressure {Pa}
  2,                                      ! Wind Speed {m/s}
  140,                                    ! Wind Direction {deg}
  0,                                      ! Sky Clearness
  0,                                      ! Rain Indicator
  0,                                      ! Snow Indicator
  21,                                     ! Day of Month
  12,                                     ! Month
  WinterDesignDay,                        ! Day Type
  0,                                      ! Daylight Saving Time Indicator
  Dewpoint,                               ! Humidity Indicating Type
  ,                                       ! Humidity Indicating Day Schedule Name
  DefaultMultipliers,                     ! Dry-Bulb Temperature Range Modifier Type
  ,                                       ! Dry-Bulb Temperature Range Modifier Schedule Name
  ASHRAEClearSky;                         ! Solar Model Indicator

OS:ComponentData,
  {7c0d8a75-ec1a-4afa-803f-213c0871199e}, ! Handle
  Component Data 1,                       ! Name
  {ee6a5099-4855-4dd8-88ed-e0e7317dbf2e}, ! UUID
  {175fa00e-235c-40bd-9492-dafc533ab2e7}, ! Version UUID
  1366310058,                             ! Creation Timestamp
  1366310058,                             ! Version Timestamp
  {0a633299-ff39-467b-8561-de8b6353c389}; ! Name of Object 1

