
OS:Version,
  {443a07e9-2123-4653-8998-bfae19a6bda6}, ! Handle
  0.9.3;                                  ! Version Identifier

OS:SizingPeriod:DesignDay,
  {2f625d34-e8a2-4505-ad55-ef50a839b42f}, ! Handle
  Scottsbluff W B Heilig Field Ann Clg 1% Condns DP=>MDB, ! Name
  23.2,                                   ! Maximum Dry-Bulb Temperature {C}
  16.6,                                   ! Daily Dry-Bulb Temperature Range {deltaC}
  17.3,                                   ! Humidity Indicating Conditions at Maximum Dry-Bulb {BasedOnField A3}
  87694,                                  ! Barometric Pressure {Pa}
  4.7,                                    ! Wind Speed {m/s}
  300,                                    ! Wind Direction {deg}
  0,                                      ! Sky Clearness
  0,                                      ! Rain Indicator
  0,                                      ! Snow Indicator
  21,                                     ! Day of Month
  7,                                      ! Month
  SummerDesignDay,                        ! Day Type
  0,                                      ! Daylight Saving Time Indicator
  Dewpoint,                               ! Humidity Indicating Type
  ,                                       ! Humidity Indicating Day Schedule Name
  DefaultMultipliers,                     ! Dry-Bulb Temperature Range Modifier Type
  ,                                       ! Dry-Bulb Temperature Range Modifier Schedule Name
  ASHRAETau,                              ! Solar Model Indicator
  ,                                       ! Beam Solar Day Schedule Name
  ,                                       ! Diffuse Solar Day Schedule Name
  0.434,                                  ! ASHRAE Taub {dimensionless}
  1.982;                                  ! ASHRAE Taud {dimensionless}

OS:ComponentData,
  {fdc93823-3c5f-474f-99a7-ee8b4ede45b8}, ! Handle
  Component Data 1,                       ! Name
  {1816c0fe-cbfb-42cb-a324-4b3a80276821}, ! UUID
  {d063f295-3da4-47b3-b8e5-9039e7085e0b}, ! Version UUID
  1366309195,                             ! Creation Timestamp
  1366309195,                             ! Version Timestamp
  {2f625d34-e8a2-4505-ad55-ef50a839b42f}; ! Name of Object 1

