
OS:Version,
  {548eb7b4-6a05-40cd-91f9-bcbcabfcbb02}, ! Handle
  0.9.3;                                  ! Version Identifier

OS:SizingPeriod:DesignDay,
  {af69998d-3b97-418a-8b04-1bbec474ebb6}, ! Handle
  New Bern Craven Co Regl Ap Ann Clg 1% Condns DP=>MDB, ! Name
  28.6,                                   ! Maximum Dry-Bulb Temperature {C}
  9.3,                                    ! Daily Dry-Bulb Temperature Range {deltaC}
  24.9,                                   ! Humidity Indicating Conditions at Maximum Dry-Bulb {BasedOnField A3}
  101265,                                 ! Barometric Pressure {Pa}
  3.6,                                    ! Wind Speed {m/s}
  240,                                    ! Wind Direction {deg}
  0,                                      ! Sky Clearness
  0,                                      ! Rain Indicator
  0,                                      ! Snow Indicator
  21,                                     ! Day of Month
  7,                                      ! Month
  SummerDesignDay,                        ! Day Type
  0,                                      ! Daylight Saving Time Indicator
  Dewpoint,                               ! Humidity Indicating Type
  ,                                       ! Humidity Indicating Day Schedule Name
  DefaultMultipliers,                     ! Dry-Bulb Temperature Range Modifier Type
  ,                                       ! Dry-Bulb Temperature Range Modifier Schedule Name
  ASHRAETau,                              ! Solar Model Indicator
  ,                                       ! Beam Solar Day Schedule Name
  ,                                       ! Diffuse Solar Day Schedule Name
  0.591,                                  ! ASHRAE Taub {dimensionless}
  1.715;                                  ! ASHRAE Taud {dimensionless}

OS:ComponentData,
  {dd19486c-e4f3-4e82-b16b-dfc88cb5d3ed}, ! Handle
  Component Data 1,                       ! Name
  {a0d148f0-cd93-455f-b1ba-2c99bb9a819f}, ! UUID
  {ebfe2175-33ad-4e02-b6d3-70db29d856e3}, ! Version UUID
  1366308952,                             ! Creation Timestamp
  1366308952,                             ! Version Timestamp
  {af69998d-3b97-418a-8b04-1bbec474ebb6}; ! Name of Object 1

