
OS:Version,
  {eba9b661-cc6f-45a9-93d5-30c52ed13682}, ! Handle
  0.9.3;                                  ! Version Identifier

OS:SizingPeriod:DesignDay,
  {a7348885-5230-4973-a12a-e8b42c3e9a9e}, ! Handle
  Quincy Muni Baldwin Fld Ann Clg .4% Condns Enth=>MDB, ! Name
  31.9,                                   ! Maximum Dry-Bulb Temperature {C}
  10.4,                                   ! Daily Dry-Bulb Temperature Range {deltaC}
  81500,                                  ! Humidity Indicating Conditions at Maximum Dry-Bulb {BasedOnField A3}
  98557,                                  ! Barometric Pressure {Pa}
  4.8,                                    ! Wind Speed {m/s}
  220,                                    ! Wind Direction {deg}
  0,                                      ! Sky Clearness
  0,                                      ! Rain Indicator
  0,                                      ! Snow Indicator
  21,                                     ! Day of Month
  7,                                      ! Month
  SummerDesignDay,                        ! Day Type
  0,                                      ! Daylight Saving Time Indicator
  Enthalpy,                               ! Humidity Indicating Type
  ,                                       ! Humidity Indicating Day Schedule Name
  DefaultMultipliers,                     ! Dry-Bulb Temperature Range Modifier Type
  ,                                       ! Dry-Bulb Temperature Range Modifier Schedule Name
  ASHRAETau,                              ! Solar Model Indicator
  ,                                       ! Beam Solar Day Schedule Name
  ,                                       ! Diffuse Solar Day Schedule Name
  0.446,                                  ! ASHRAE Taub {dimensionless}
  2.091;                                  ! ASHRAE Taud {dimensionless}

OS:ComponentData,
  {6c8eafc8-46e7-47df-9900-9cb71b2c01f8}, ! Handle
  Component Data 1,                       ! Name
  {fca5d181-e489-4e76-91b0-e09a0764bc2c}, ! UUID
  {5c594690-19e6-479c-997b-a03b360cc2a1}, ! Version UUID
  1366307389,                             ! Creation Timestamp
  1366307389,                             ! Version Timestamp
  {a7348885-5230-4973-a12a-e8b42c3e9a9e}; ! Name of Object 1

