
OS:Version,
  {346538eb-0816-491a-a585-56a1e041abea}, ! Handle
  0.9.3;                                  ! Version Identifier

OS:SizingPeriod:DesignDay,
  {6e48b183-b28e-4fd2-a944-625a63a74f47}, ! Handle
  Tupelo C D Lemons Arpt Ann Hum_n 99.6% Condns DP=>MCDB, ! Name
  -4.8,                                   ! Maximum Dry-Bulb Temperature {C}
  0,                                      ! Daily Dry-Bulb Temperature Range {deltaC}
  -14,                                    ! Humidity Indicating Conditions at Maximum Dry-Bulb {BasedOnField A3}
  100011,                                 ! Barometric Pressure {Pa}
  3,                                      ! Wind Speed {m/s}
  0,                                      ! Wind Direction {deg}
  0,                                      ! Sky Clearness
  0,                                      ! Rain Indicator
  0,                                      ! Snow Indicator
  21,                                     ! Day of Month
  1,                                      ! Month
  WinterDesignDay,                        ! Day Type
  0,                                      ! Daylight Saving Time Indicator
  Dewpoint,                               ! Humidity Indicating Type
  ,                                       ! Humidity Indicating Day Schedule Name
  DefaultMultipliers,                     ! Dry-Bulb Temperature Range Modifier Type
  ,                                       ! Dry-Bulb Temperature Range Modifier Schedule Name
  ASHRAEClearSky;                         ! Solar Model Indicator

OS:ComponentData,
  {66ccc09d-f919-460e-b0a6-f6654fb10b32}, ! Handle
  Component Data 1,                       ! Name
  {13d99d4c-d452-4ede-b73b-d909265feaca}, ! UUID
  {6115ede8-14ec-4d80-9618-5b3f27e962e0}, ! Version UUID
  1366308690,                             ! Creation Timestamp
  1366308690,                             ! Version Timestamp
  {6e48b183-b28e-4fd2-a944-625a63a74f47}; ! Name of Object 1

