
OS:Version,
  {4aadfcbe-5977-48c0-9118-a2c0b43cd972}, ! Handle
  0.9.3;                                  ! Version Identifier

OS:SizingPeriod:DesignDay,
  {a59fe6fa-8738-4afd-88de-f8f2b8a8a3f8}, ! Handle
  Oceana Nas Ann Clg 2% Condns DP=>MDB,   ! Name
  27.6,                                   ! Maximum Dry-Bulb Temperature {C}
  8.4,                                    ! Daily Dry-Bulb Temperature Range {deltaC}
  23.7,                                   ! Humidity Indicating Conditions at Maximum Dry-Bulb {BasedOnField A3}
  101229,                                 ! Barometric Pressure {Pa}
  4.4,                                    ! Wind Speed {m/s}
  220,                                    ! Wind Direction {deg}
  0,                                      ! Sky Clearness
  0,                                      ! Rain Indicator
  0,                                      ! Snow Indicator
  21,                                     ! Day of Month
  7,                                      ! Month
  SummerDesignDay,                        ! Day Type
  0,                                      ! Daylight Saving Time Indicator
  Dewpoint,                               ! Humidity Indicating Type
  ,                                       ! Humidity Indicating Day Schedule Name
  DefaultMultipliers,                     ! Dry-Bulb Temperature Range Modifier Type
  ,                                       ! Dry-Bulb Temperature Range Modifier Schedule Name
  ASHRAETau,                              ! Solar Model Indicator
  ,                                       ! Beam Solar Day Schedule Name
  ,                                       ! Diffuse Solar Day Schedule Name
  0.585,                                  ! ASHRAE Taub {dimensionless}
  1.719;                                  ! ASHRAE Taud {dimensionless}

OS:ComponentData,
  {360cab31-6f10-4a38-a0c8-2c37465847fd}, ! Handle
  Component Data 1,                       ! Name
  {01e9bb1f-aebc-462f-8c1a-d805e40f1f84}, ! UUID
  {864ff3e5-d52a-4a34-8f89-e453da186256}, ! Version UUID
  1366311146,                             ! Creation Timestamp
  1366311146,                             ! Version Timestamp
  {a59fe6fa-8738-4afd-88de-f8f2b8a8a3f8}; ! Name of Object 1

