
OS:Version,
  {ac119a25-35d6-44df-a7cd-2e28a647ab72}, ! Handle
  0.9.3;                                  ! Version Identifier

OS:SizingPeriod:DesignDay,
  {fa97fcc1-190f-4270-9c9c-f611c83cce45}, ! Handle
  Santa Maria Ann Clg 2% Condns WB=>MDB,  ! Name
  23.4,                                   ! Maximum Dry-Bulb Temperature {C}
  10.2,                                   ! Daily Dry-Bulb Temperature Range {deltaC}
  17.5,                                   ! Humidity Indicating Conditions at Maximum Dry-Bulb {BasedOnField A3}
  100451,                                 ! Barometric Pressure {Pa}
  4.6,                                    ! Wind Speed {m/s}
  300,                                    ! Wind Direction {deg}
  0,                                      ! Sky Clearness
  0,                                      ! Rain Indicator
  0,                                      ! Snow Indicator
  21,                                     ! Day of Month
  8,                                      ! Month
  SummerDesignDay,                        ! Day Type
  0,                                      ! Daylight Saving Time Indicator
  Wetbulb,                                ! Humidity Indicating Type
  ,                                       ! Humidity Indicating Day Schedule Name
  DefaultMultipliers,                     ! Dry-Bulb Temperature Range Modifier Type
  ,                                       ! Dry-Bulb Temperature Range Modifier Schedule Name
  ASHRAETau,                              ! Solar Model Indicator
  ,                                       ! Beam Solar Day Schedule Name
  ,                                       ! Diffuse Solar Day Schedule Name
  0.371,                                  ! ASHRAE Taub {dimensionless}
  2.414;                                  ! ASHRAE Taud {dimensionless}

OS:ComponentData,
  {9974bb7b-d87e-45e8-b710-a3ea4d39d13f}, ! Handle
  Component Data 1,                       ! Name
  {156bc953-91e1-43c0-97fc-bffff14d4afc}, ! UUID
  {6e944b7e-f289-4dd5-b984-3588a2b80068}, ! Version UUID
  1366306612,                             ! Creation Timestamp
  1366306612,                             ! Version Timestamp
  {fa97fcc1-190f-4270-9c9c-f611c83cce45}; ! Name of Object 1

