
OS:Version,
  {defac0aa-9706-4be8-a331-dce4d715f6fe}, ! Handle
  0.9.3;                                  ! Version Identifier

OS:SizingPeriod:DesignDay,
  {705fb3a0-52e7-4fca-8916-f06c294c4ee6}, ! Handle
  Pine Bluff Faa Ap Ann Clg 2% Condns DB=>MWB, ! Name
  33.9,                                   ! Maximum Dry-Bulb Temperature {C}
  10.3,                                   ! Daily Dry-Bulb Temperature Range {deltaC}
  24.9,                                   ! Humidity Indicating Conditions at Maximum Dry-Bulb {BasedOnField A3}
  100570,                                 ! Barometric Pressure {Pa}
  2.9,                                    ! Wind Speed {m/s}
  210,                                    ! Wind Direction {deg}
  0,                                      ! Sky Clearness
  0,                                      ! Rain Indicator
  0,                                      ! Snow Indicator
  21,                                     ! Day of Month
  7,                                      ! Month
  SummerDesignDay,                        ! Day Type
  0,                                      ! Daylight Saving Time Indicator
  Wetbulb,                                ! Humidity Indicating Type
  ,                                       ! Humidity Indicating Day Schedule Name
  DefaultMultipliers,                     ! Dry-Bulb Temperature Range Modifier Type
  ,                                       ! Dry-Bulb Temperature Range Modifier Schedule Name
  ASHRAETau,                              ! Solar Model Indicator
  ,                                       ! Beam Solar Day Schedule Name
  ,                                       ! Diffuse Solar Day Schedule Name
  0.517,                                  ! ASHRAE Taub {dimensionless}
  1.899;                                  ! ASHRAE Taud {dimensionless}

OS:ComponentData,
  {532c01ae-0506-486e-8c56-375077a46ff5}, ! Handle
  Component Data 1,                       ! Name
  {f9658786-94ea-4a32-a616-926808a1ecb3}, ! UUID
  {2ed6f017-6bb0-4a6d-bddb-5b1705dab67c}, ! Version UUID
  1366306240,                             ! Creation Timestamp
  1366306240,                             ! Version Timestamp
  {705fb3a0-52e7-4fca-8916-f06c294c4ee6}; ! Name of Object 1

