
OS:Version,
  {4c1a176d-7d11-4a78-bfdd-6b44576fe6c7}, ! Handle
  0.9.3;                                  ! Version Identifier

OS:SizingPeriod:DesignDay,
  {5d9df4a6-b063-4910-bf1d-c6772c3ab2e6}, ! Handle
  Point Mugu Nf Ann Clg .4% Condns DP=>MDB, ! Name
  22.9,                                   ! Maximum Dry-Bulb Temperature {C}
  7.8,                                    ! Daily Dry-Bulb Temperature Range {deltaC}
  20,                                     ! Humidity Indicating Conditions at Maximum Dry-Bulb {BasedOnField A3}
  101289,                                 ! Barometric Pressure {Pa}
  5.2,                                    ! Wind Speed {m/s}
  50,                                     ! Wind Direction {deg}
  0,                                      ! Sky Clearness
  0,                                      ! Rain Indicator
  0,                                      ! Snow Indicator
  21,                                     ! Day of Month
  8,                                      ! Month
  SummerDesignDay,                        ! Day Type
  0,                                      ! Daylight Saving Time Indicator
  Dewpoint,                               ! Humidity Indicating Type
  ,                                       ! Humidity Indicating Day Schedule Name
  DefaultMultipliers,                     ! Dry-Bulb Temperature Range Modifier Type
  ,                                       ! Dry-Bulb Temperature Range Modifier Schedule Name
  ASHRAETau,                              ! Solar Model Indicator
  ,                                       ! Beam Solar Day Schedule Name
  ,                                       ! Diffuse Solar Day Schedule Name
  0.425,                                  ! ASHRAE Taub {dimensionless}
  2.2;                                    ! ASHRAE Taud {dimensionless}

OS:ComponentData,
  {692feb1d-1cbc-468b-a958-07a4ebab4eb4}, ! Handle
  Component Data 1,                       ! Name
  {1cde3da2-e97c-4ca3-9c24-2233ea396b34}, ! UUID
  {25838a5f-a015-41ef-bde4-56767fdac4a8}, ! Version UUID
  1366306539,                             ! Creation Timestamp
  1366306539,                             ! Version Timestamp
  {5d9df4a6-b063-4910-bf1d-c6772c3ab2e6}; ! Name of Object 1

