
OS:Version,
  {de692fcb-e2d6-4feb-a02a-48f3a51d2367}, ! Handle
  0.9.3;                                  ! Version Identifier

OS:SizingPeriod:DesignDay,
  {94495522-4e58-46df-b67c-931770aaca08}, ! Handle
  SAN_ANGELO Ann Clg 1% Condns DP=>MDB,   ! Name
  25.9,                                   ! Maximum Dry-Bulb Temperature {C}
  12.8,                                   ! Daily Dry-Bulb Temperature Range {deltaC}
  21.4,                                   ! Humidity Indicating Conditions at Maximum Dry-Bulb {BasedOnField A3}
  94526,                                  ! Barometric Pressure {Pa}
  4.9,                                    ! Wind Speed {m/s}
  170,                                    ! Wind Direction {deg}
  0,                                      ! Sky Clearness
  0,                                      ! Rain Indicator
  0,                                      ! Snow Indicator
  21,                                     ! Day of Month
  7,                                      ! Month
  SummerDesignDay,                        ! Day Type
  0,                                      ! Daylight Saving Time Indicator
  Dewpoint,                               ! Humidity Indicating Type
  ,                                       ! Humidity Indicating Day Schedule Name
  DefaultMultipliers,                     ! Dry-Bulb Temperature Range Modifier Type
  ,                                       ! Dry-Bulb Temperature Range Modifier Schedule Name
  ASHRAETau,                              ! Solar Model Indicator
  ,                                       ! Beam Solar Day Schedule Name
  ,                                       ! Diffuse Solar Day Schedule Name
  0.454,                                  ! ASHRAE Taub {dimensionless}
  2.053;                                  ! ASHRAE Taud {dimensionless}

OS:ComponentData,
  {da27da7d-6a56-4fdb-bc6d-ea121af80325}, ! Handle
  Component Data 1,                       ! Name
  {b096ae51-a31e-4845-ab89-c9fbf998a5e0}, ! UUID
  {bcb49fdd-6152-4484-bda2-40e8f9b2f9f9}, ! Version UUID
  1366310879,                             ! Creation Timestamp
  1366310879,                             ! Version Timestamp
  {94495522-4e58-46df-b67c-931770aaca08}; ! Name of Object 1

