
OS:Version,
  {3612a0a9-f22c-4dbf-b47e-0eec0ea00835}, ! Handle
  0.9.3;                                  ! Version Identifier

OS:SizingPeriod:DesignDay,
  {cdb64e32-b307-4af2-b08b-082839492b07}, ! Handle
  Mobridge Ann Clg .4% Condns DB=>MWB,    ! Name
  35,                                     ! Maximum Dry-Bulb Temperature {C}
  12.5,                                   ! Daily Dry-Bulb Temperature Range {deltaC}
  21.2,                                   ! Humidity Indicating Conditions at Maximum Dry-Bulb {BasedOnField A3}
  95369,                                  ! Barometric Pressure {Pa}
  5.7,                                    ! Wind Speed {m/s}
  150,                                    ! Wind Direction {deg}
  0,                                      ! Sky Clearness
  0,                                      ! Rain Indicator
  0,                                      ! Snow Indicator
  21,                                     ! Day of Month
  7,                                      ! Month
  SummerDesignDay,                        ! Day Type
  0,                                      ! Daylight Saving Time Indicator
  Wetbulb,                                ! Humidity Indicating Type
  ,                                       ! Humidity Indicating Day Schedule Name
  DefaultMultipliers,                     ! Dry-Bulb Temperature Range Modifier Type
  ,                                       ! Dry-Bulb Temperature Range Modifier Schedule Name
  ASHRAETau,                              ! Solar Model Indicator
  ,                                       ! Beam Solar Day Schedule Name
  ,                                       ! Diffuse Solar Day Schedule Name
  0.406,                                  ! ASHRAE Taub {dimensionless}
  2.187;                                  ! ASHRAE Taud {dimensionless}

OS:ComponentData,
  {cb8185c2-d46b-4d7b-95e9-d92e15f6180e}, ! Handle
  Component Data 1,                       ! Name
  {11d7115a-25d2-465f-b249-2321c86770d9}, ! UUID
  {cc7a6eb1-4e2e-44d1-bd64-18344175982e}, ! Version UUID
  1366310417,                             ! Creation Timestamp
  1366310417,                             ! Version Timestamp
  {cdb64e32-b307-4af2-b08b-082839492b07}; ! Name of Object 1

