
OS:Version,
  {aa9812a4-5a8a-42f5-abee-3671b0fbca1d}, ! Handle
  0.9.3;                                  ! Version Identifier

OS:SizingPeriod:DesignDay,
  {fb62f2dc-ab4b-4832-8078-b3e764f1b0f5}, ! Handle
  San Antonio Stinson Ann Clg 1% Condns Enth=>MDB, ! Name
  32.1,                                   ! Maximum Dry-Bulb Temperature {C}
  11.7,                                   ! Daily Dry-Bulb Temperature Range {deltaC}
  80600,                                  ! Humidity Indicating Conditions at Maximum Dry-Bulb {BasedOnField A3}
  99228,                                  ! Barometric Pressure {Pa}
  4.4,                                    ! Wind Speed {m/s}
  130,                                    ! Wind Direction {deg}
  0,                                      ! Sky Clearness
  0,                                      ! Rain Indicator
  0,                                      ! Snow Indicator
  21,                                     ! Day of Month
  8,                                      ! Month
  SummerDesignDay,                        ! Day Type
  0,                                      ! Daylight Saving Time Indicator
  Enthalpy,                               ! Humidity Indicating Type
  ,                                       ! Humidity Indicating Day Schedule Name
  DefaultMultipliers,                     ! Dry-Bulb Temperature Range Modifier Type
  ,                                       ! Dry-Bulb Temperature Range Modifier Schedule Name
  ASHRAETau,                              ! Solar Model Indicator
  ,                                       ! Beam Solar Day Schedule Name
  ,                                       ! Diffuse Solar Day Schedule Name
  0.454,                                  ! ASHRAE Taub {dimensionless}
  2.127;                                  ! ASHRAE Taud {dimensionless}

OS:ComponentData,
  {1c72dba8-db72-4bd1-81f9-c238e8d1a3d3}, ! Handle
  Component Data 1,                       ! Name
  {0179dccf-2c40-4e03-b803-8068f7bfcadf}, ! UUID
  {045616ca-7ac0-44d4-8332-d56c43a29416}, ! Version UUID
  1366310887,                             ! Creation Timestamp
  1366310887,                             ! Version Timestamp
  {fb62f2dc-ab4b-4832-8078-b3e764f1b0f5}; ! Name of Object 1

