
OS:Version,
  {6757364b-03be-4c87-9077-3be25534b43b}, ! Handle
  0.9.3;                                  ! Version Identifier

OS:SizingPeriod:DesignDay,
  {5d686bcf-0568-4668-a210-f56db9358fbb}, ! Handle
  Sanford Muni  Awos Ann Clg 2% Condns DP=>MDB, ! Name
  24.4,                                   ! Maximum Dry-Bulb Temperature {C}
  12.6,                                   ! Daily Dry-Bulb Temperature Range {deltaC}
  18.9,                                   ! Humidity Indicating Conditions at Maximum Dry-Bulb {BasedOnField A3}
  100439,                                 ! Barometric Pressure {Pa}
  3.9,                                    ! Wind Speed {m/s}
  230,                                    ! Wind Direction {deg}
  0,                                      ! Sky Clearness
  0,                                      ! Rain Indicator
  0,                                      ! Snow Indicator
  21,                                     ! Day of Month
  7,                                      ! Month
  SummerDesignDay,                        ! Day Type
  0,                                      ! Daylight Saving Time Indicator
  Dewpoint,                               ! Humidity Indicating Type
  ,                                       ! Humidity Indicating Day Schedule Name
  DefaultMultipliers,                     ! Dry-Bulb Temperature Range Modifier Type
  ,                                       ! Dry-Bulb Temperature Range Modifier Schedule Name
  ASHRAETau,                              ! Solar Model Indicator
  ,                                       ! Beam Solar Day Schedule Name
  ,                                       ! Diffuse Solar Day Schedule Name
  0.471,                                  ! ASHRAE Taub {dimensionless}
  1.98;                                   ! ASHRAE Taud {dimensionless}

OS:ComponentData,
  {5200ecbe-189e-44d7-979a-929867e9d0de}, ! Handle
  Component Data 1,                       ! Name
  {e6d8a049-b6f5-44b9-914f-d0f027576bb8}, ! UUID
  {885be61b-9248-4e93-a9de-1e8ec1676762}, ! Version UUID
  1366307927,                             ! Creation Timestamp
  1366307927,                             ! Version Timestamp
  {5d686bcf-0568-4668-a210-f56db9358fbb}; ! Name of Object 1

