
OS:Version,
  {adcac214-1cf4-4864-a8b2-e9b134053618}, ! Handle
  0.9.3;                                  ! Version Identifier

OS:SizingPeriod:DesignDay,
  {110edf03-3787-4c1a-9b07-c8f3f894bef0}, ! Handle
  Natchez Hardy Awos Ann Clg 2% Condns Enth=>MDB, ! Name
  31.2,                                   ! Maximum Dry-Bulb Temperature {C}
  9.7,                                    ! Daily Dry-Bulb Temperature Range {deltaC}
  78500,                                  ! Humidity Indicating Conditions at Maximum Dry-Bulb {BasedOnField A3}
  100332,                                 ! Barometric Pressure {Pa}
  2.6,                                    ! Wind Speed {m/s}
  240,                                    ! Wind Direction {deg}
  0,                                      ! Sky Clearness
  0,                                      ! Rain Indicator
  0,                                      ! Snow Indicator
  21,                                     ! Day of Month
  7,                                      ! Month
  SummerDesignDay,                        ! Day Type
  0,                                      ! Daylight Saving Time Indicator
  Enthalpy,                               ! Humidity Indicating Type
  ,                                       ! Humidity Indicating Day Schedule Name
  DefaultMultipliers,                     ! Dry-Bulb Temperature Range Modifier Type
  ,                                       ! Dry-Bulb Temperature Range Modifier Schedule Name
  ASHRAETau,                              ! Solar Model Indicator
  ,                                       ! Beam Solar Day Schedule Name
  ,                                       ! Diffuse Solar Day Schedule Name
  0.519,                                  ! ASHRAE Taub {dimensionless}
  1.903;                                  ! ASHRAE Taud {dimensionless}

OS:ComponentData,
  {88369e30-7824-4914-bbf3-8a9e63e0e0d8}, ! Handle
  Component Data 1,                       ! Name
  {983bacea-f1b9-49f8-b5ed-667b9872c46a}, ! UUID
  {b2ea0bce-acd8-4a98-839e-5747cb92f6c6}, ! Version UUID
  1366308687,                             ! Creation Timestamp
  1366308687,                             ! Version Timestamp
  {110edf03-3787-4c1a-9b07-c8f3f894bef0}; ! Name of Object 1

