
OS:Version,
  {a5fb13c7-dab0-443e-b3db-4163cd9734fa}, ! Handle
  0.9.3;                                  ! Version Identifier

OS:SizingPeriod:DesignDay,
  {26fccc78-aa16-4a9e-81b8-b8dc612df3e7}, ! Handle
  Philadelphia Ne Philadelphia Ann Clg 2% Condns DB=>MWB, ! Name
  31.1,                                   ! Maximum Dry-Bulb Temperature {C}
  10.3,                                   ! Daily Dry-Bulb Temperature Range {deltaC}
  23,                                     ! Humidity Indicating Conditions at Maximum Dry-Bulb {BasedOnField A3}
  100965,                                 ! Barometric Pressure {Pa}
  4.4,                                    ! Wind Speed {m/s}
  300,                                    ! Wind Direction {deg}
  0,                                      ! Sky Clearness
  0,                                      ! Rain Indicator
  0,                                      ! Snow Indicator
  21,                                     ! Day of Month
  7,                                      ! Month
  SummerDesignDay,                        ! Day Type
  0,                                      ! Daylight Saving Time Indicator
  Wetbulb,                                ! Humidity Indicating Type
  ,                                       ! Humidity Indicating Day Schedule Name
  DefaultMultipliers,                     ! Dry-Bulb Temperature Range Modifier Type
  ,                                       ! Dry-Bulb Temperature Range Modifier Schedule Name
  ASHRAETau,                              ! Solar Model Indicator
  ,                                       ! Beam Solar Day Schedule Name
  ,                                       ! Diffuse Solar Day Schedule Name
  0.537,                                  ! ASHRAE Taub {dimensionless}
  1.806;                                  ! ASHRAE Taud {dimensionless}

OS:ComponentData,
  {5d0a5606-5d3d-4e67-b21b-26317bc956a2}, ! Handle
  Component Data 1,                       ! Name
  {f5ad2177-2a27-425f-8e15-ca4c3b1615eb}, ! UUID
  {9131789d-7ee2-4126-9539-500522f8cb55}, ! Version UUID
  1366310207,                             ! Creation Timestamp
  1366310207,                             ! Version Timestamp
  {26fccc78-aa16-4a9e-81b8-b8dc612df3e7}; ! Name of Object 1

