
OS:Version,
  {d3cdddf6-2776-4e7e-ade7-a3e7b83a88a1}, ! Handle
  0.9.3;                                  ! Version Identifier

OS:SizingPeriod:DesignDay,
  {077808f8-c9d3-49aa-b648-cb7a6484beaf}, ! Handle
  Utica Oneida County Ap Ann Clg .4% Condns WB=>MDB, ! Name
  28.5,                                   ! Maximum Dry-Bulb Temperature {C}
  10.7,                                   ! Daily Dry-Bulb Temperature Range {deltaC}
  23.8,                                   ! Humidity Indicating Conditions at Maximum Dry-Bulb {BasedOnField A3}
  98745,                                  ! Barometric Pressure {Pa}
  3.9,                                    ! Wind Speed {m/s}
  280,                                    ! Wind Direction {deg}
  0,                                      ! Sky Clearness
  0,                                      ! Rain Indicator
  0,                                      ! Snow Indicator
  21,                                     ! Day of Month
  7,                                      ! Month
  SummerDesignDay,                        ! Day Type
  0,                                      ! Daylight Saving Time Indicator
  Wetbulb,                                ! Humidity Indicating Type
  ,                                       ! Humidity Indicating Day Schedule Name
  DefaultMultipliers,                     ! Dry-Bulb Temperature Range Modifier Type
  ,                                       ! Dry-Bulb Temperature Range Modifier Schedule Name
  ASHRAETau,                              ! Solar Model Indicator
  ,                                       ! Beam Solar Day Schedule Name
  ,                                       ! Diffuse Solar Day Schedule Name
  0.461,                                  ! ASHRAE Taub {dimensionless}
  1.999;                                  ! ASHRAE Taud {dimensionless}

OS:ComponentData,
  {58389b5f-1b83-48c0-9918-326fef70ecc1}, ! Handle
  Component Data 1,                       ! Name
  {b9059d70-983a-4786-9bb9-269a8569c083}, ! UUID
  {be08772f-4ed3-4c51-b7e8-20a27bfa2524}, ! Version UUID
  1366309745,                             ! Creation Timestamp
  1366309745,                             ! Version Timestamp
  {077808f8-c9d3-49aa-b648-cb7a6484beaf}; ! Name of Object 1

