
OS:Version,
  {caf69af7-6e7f-4785-bb58-e7447bee7d92}, ! Handle
  0.9.3;                                  ! Version Identifier

OS:SizingPeriod:DesignDay,
  {8e96b7d5-3ed6-47a2-99f0-93b93dbf45bd}, ! Handle
  WATERLOO Ann Clg 1% Condns DB=>MWB,     ! Name
  31.6,                                   ! Maximum Dry-Bulb Temperature {C}
  11.2,                                   ! Daily Dry-Bulb Temperature Range {deltaC}
  23.2,                                   ! Humidity Indicating Conditions at Maximum Dry-Bulb {BasedOnField A3}
  98182,                                  ! Barometric Pressure {Pa}
  5.5,                                    ! Wind Speed {m/s}
  190,                                    ! Wind Direction {deg}
  0,                                      ! Sky Clearness
  0,                                      ! Rain Indicator
  0,                                      ! Snow Indicator
  21,                                     ! Day of Month
  7,                                      ! Month
  SummerDesignDay,                        ! Day Type
  0,                                      ! Daylight Saving Time Indicator
  Wetbulb,                                ! Humidity Indicating Type
  ,                                       ! Humidity Indicating Day Schedule Name
  DefaultMultipliers,                     ! Dry-Bulb Temperature Range Modifier Type
  ,                                       ! Dry-Bulb Temperature Range Modifier Schedule Name
  ASHRAETau,                              ! Solar Model Indicator
  ,                                       ! Beam Solar Day Schedule Name
  ,                                       ! Diffuse Solar Day Schedule Name
  0.427,                                  ! ASHRAE Taub {dimensionless}
  2.147;                                  ! ASHRAE Taud {dimensionless}

OS:ComponentData,
  {6c6d70b7-365e-4390-a882-913e71d326f5}, ! Handle
  Component Data 1,                       ! Name
  {af3a97e1-68c4-4971-a222-d10e4c9b2c03}, ! UUID
  {d6580e59-f21e-421b-a0f6-96bbb152f022}, ! Version UUID
  1366307252,                             ! Creation Timestamp
  1366307252,                             ! Version Timestamp
  {8e96b7d5-3ed6-47a2-99f0-93b93dbf45bd}; ! Name of Object 1

