
OS:Version,
  {5526c767-fb3a-4aca-986b-cf716ec60c29}, ! Handle
  0.9.3;                                  ! Version Identifier

OS:SizingPeriod:DesignDay,
  {69f5c83c-7060-4ebb-80d7-df5733f9e71b}, ! Handle
  Sioux City Ann Clg 1% Condns Enth=>MDB, ! Name
  30.6,                                   ! Maximum Dry-Bulb Temperature {C}
  11.4,                                   ! Daily Dry-Bulb Temperature Range {deltaC}
  78100,                                  ! Humidity Indicating Conditions at Maximum Dry-Bulb {BasedOnField A3}
  97353,                                  ! Barometric Pressure {Pa}
  6.3,                                    ! Wind Speed {m/s}
  180,                                    ! Wind Direction {deg}
  0,                                      ! Sky Clearness
  0,                                      ! Rain Indicator
  0,                                      ! Snow Indicator
  21,                                     ! Day of Month
  7,                                      ! Month
  SummerDesignDay,                        ! Day Type
  0,                                      ! Daylight Saving Time Indicator
  Enthalpy,                               ! Humidity Indicating Type
  ,                                       ! Humidity Indicating Day Schedule Name
  DefaultMultipliers,                     ! Dry-Bulb Temperature Range Modifier Type
  ,                                       ! Dry-Bulb Temperature Range Modifier Schedule Name
  ASHRAETau,                              ! Solar Model Indicator
  ,                                       ! Beam Solar Day Schedule Name
  ,                                       ! Diffuse Solar Day Schedule Name
  0.409,                                  ! ASHRAE Taub {dimensionless}
  2.217;                                  ! ASHRAE Taud {dimensionless}

OS:ComponentData,
  {93b1c07f-910c-434c-b694-e8b3ae516291}, ! Handle
  Component Data 1,                       ! Name
  {0c666451-5c55-4542-ac26-853201cb249f}, ! UUID
  {766362d9-44ee-4e04-b21e-2f449fc33b2d}, ! Version UUID
  1366307233,                             ! Creation Timestamp
  1366307233,                             ! Version Timestamp
  {69f5c83c-7060-4ebb-80d7-df5733f9e71b}; ! Name of Object 1

