
OS:Version,
  {f29e3f4a-c2d0-4353-9bbe-28e1d1fbc69d}, ! Handle
  0.9.3;                                  ! Version Identifier

OS:SizingPeriod:DesignDay,
  {14744e20-1a21-4624-bfd6-871c144cb3f2}, ! Handle
  Panama City Bay Co Ann Hum_n 99.6% Condns DP=>MCDB, ! Name
  4.2,                                    ! Maximum Dry-Bulb Temperature {C}
  0,                                      ! Daily Dry-Bulb Temperature Range {deltaC}
  -8.9,                                   ! Humidity Indicating Conditions at Maximum Dry-Bulb {BasedOnField A3}
  101253,                                 ! Barometric Pressure {Pa}
  3.5,                                    ! Wind Speed {m/s}
  30,                                     ! Wind Direction {deg}
  0,                                      ! Sky Clearness
  0,                                      ! Rain Indicator
  0,                                      ! Snow Indicator
  21,                                     ! Day of Month
  1,                                      ! Month
  WinterDesignDay,                        ! Day Type
  0,                                      ! Daylight Saving Time Indicator
  Dewpoint,                               ! Humidity Indicating Type
  ,                                       ! Humidity Indicating Day Schedule Name
  DefaultMultipliers,                     ! Dry-Bulb Temperature Range Modifier Type
  ,                                       ! Dry-Bulb Temperature Range Modifier Schedule Name
  ASHRAEClearSky;                         ! Solar Model Indicator

OS:ComponentData,
  {b087d58c-0d73-4900-90ee-e086f21f2a2c}, ! Handle
  Component Data 1,                       ! Name
  {c968a68e-03a3-4bea-9caa-c52fa1e3fd9d}, ! UUID
  {c66e1439-8973-4e8a-915c-5b6326f15e53}, ! Version UUID
  1366306898,                             ! Creation Timestamp
  1366306898,                             ! Version Timestamp
  {14744e20-1a21-4624-bfd6-871c144cb3f2}; ! Name of Object 1

