
OS:Version,
  {2c69feaf-4e2f-4eaa-978a-e4b473139bb3}, ! Handle
  0.9.3;                                  ! Version Identifier

OS:SizingPeriod:DesignDay,
  {1b6d32af-f856-4d7b-9daf-b72ebafaea7d}, ! Handle
  Springfield Regional Arpt Ann Htg Wind 99.6% Condns WS=>MCDB, ! Name
  4.9,                                    ! Maximum Dry-Bulb Temperature {C}
  0,                                      ! Daily Dry-Bulb Temperature Range {deltaC}
  4.9,                                    ! Humidity Indicating Conditions at Maximum Dry-Bulb {BasedOnField A3}
  96796,                                  ! Barometric Pressure {Pa}
  11.6,                                   ! Wind Speed {m/s}
  350,                                    ! Wind Direction {deg}
  0,                                      ! Sky Clearness
  0,                                      ! Rain Indicator
  0,                                      ! Snow Indicator
  21,                                     ! Day of Month
  1,                                      ! Month
  WinterDesignDay,                        ! Day Type
  0,                                      ! Daylight Saving Time Indicator
  Wetbulb,                                ! Humidity Indicating Type
  ,                                       ! Humidity Indicating Day Schedule Name
  DefaultMultipliers,                     ! Dry-Bulb Temperature Range Modifier Type
  ,                                       ! Dry-Bulb Temperature Range Modifier Schedule Name
  ASHRAEClearSky;                         ! Solar Model Indicator

OS:ComponentData,
  {5e81476a-f29a-4adf-906a-f344902de1d4}, ! Handle
  Component Data 1,                       ! Name
  {5b86bc36-bb71-45b9-be9b-0f5c07a5f4da}, ! UUID
  {191ce31b-4a05-4230-a857-c3dfc73de902}, ! Version UUID
  1366308570,                             ! Creation Timestamp
  1366308570,                             ! Version Timestamp
  {1b6d32af-f856-4d7b-9daf-b72ebafaea7d}; ! Name of Object 1

