
OS:Version,
  {f2f2abe9-4232-41a4-919b-95766d476abe}, ! Handle
  0.9.3;                                  ! Version Identifier

OS:SizingPeriod:DesignDay,
  {b8577eed-2961-499e-9be6-e7a67d74868a}, ! Handle
  Staunton Shenandoah Ann Clg .4% Condns WB=>MDB, ! Name
  30.8,                                   ! Maximum Dry-Bulb Temperature {C}
  11.8,                                   ! Daily Dry-Bulb Temperature Range {deltaC}
  25.8,                                   ! Humidity Indicating Conditions at Maximum Dry-Bulb {BasedOnField A3}
  97005,                                  ! Barometric Pressure {Pa}
  3.2,                                    ! Wind Speed {m/s}
  220,                                    ! Wind Direction {deg}
  0,                                      ! Sky Clearness
  0,                                      ! Rain Indicator
  0,                                      ! Snow Indicator
  21,                                     ! Day of Month
  7,                                      ! Month
  SummerDesignDay,                        ! Day Type
  0,                                      ! Daylight Saving Time Indicator
  Wetbulb,                                ! Humidity Indicating Type
  ,                                       ! Humidity Indicating Day Schedule Name
  DefaultMultipliers,                     ! Dry-Bulb Temperature Range Modifier Type
  ,                                       ! Dry-Bulb Temperature Range Modifier Schedule Name
  ASHRAETau,                              ! Solar Model Indicator
  ,                                       ! Beam Solar Day Schedule Name
  ,                                       ! Diffuse Solar Day Schedule Name
  0.524,                                  ! ASHRAE Taub {dimensionless}
  1.829;                                  ! ASHRAE Taud {dimensionless}

OS:ComponentData,
  {385f176e-757c-41f9-994e-6e3dfe6d4fcb}, ! Handle
  Component Data 1,                       ! Name
  {93c0bb92-685c-4822-a19d-423c251c9af0}, ! UUID
  {f7f54371-6ea2-4a97-9d02-214d1c56f1aa}, ! Version UUID
  1366311197,                             ! Creation Timestamp
  1366311197,                             ! Version Timestamp
  {b8577eed-2961-499e-9be6-e7a67d74868a}; ! Name of Object 1

