
OS:Version,
  {67d764e4-40a3-4a3a-8d07-b168d5046d9c}, ! Handle
  0.9.3;                                  ! Version Identifier

OS:SizingPeriod:DesignDay,
  {93b05e92-35fa-4324-9d10-bde091a23960}, ! Handle
  Minchumina Ann Clg 2% Condns DB=>MWB,   ! Name
  21.4,                                   ! Maximum Dry-Bulb Temperature {C}
  8.5,                                    ! Daily Dry-Bulb Temperature Range {deltaC}
  13.5,                                   ! Humidity Indicating Conditions at Maximum Dry-Bulb {BasedOnField A3}
  98792,                                  ! Barometric Pressure {Pa}
  1.7,                                    ! Wind Speed {m/s}
  70,                                     ! Wind Direction {deg}
  0,                                      ! Sky Clearness
  0,                                      ! Rain Indicator
  0,                                      ! Snow Indicator
  21,                                     ! Day of Month
  7,                                      ! Month
  SummerDesignDay,                        ! Day Type
  0,                                      ! Daylight Saving Time Indicator
  Wetbulb,                                ! Humidity Indicating Type
  ,                                       ! Humidity Indicating Day Schedule Name
  DefaultMultipliers,                     ! Dry-Bulb Temperature Range Modifier Type
  ,                                       ! Dry-Bulb Temperature Range Modifier Schedule Name
  ASHRAETau,                              ! Solar Model Indicator
  ,                                       ! Beam Solar Day Schedule Name
  ,                                       ! Diffuse Solar Day Schedule Name
  0.376,                                  ! ASHRAE Taub {dimensionless}
  2.222;                                  ! ASHRAE Taud {dimensionless}

OS:ComponentData,
  {ed1c20cc-ac90-4e2d-9cbb-e72856461e38}, ! Handle
  Component Data 1,                       ! Name
  {28b38652-8c4e-4f0d-a449-b88a553cb879}, ! UUID
  {03b1e9c7-788c-4862-8e45-77208f651f12}, ! Version UUID
  1366305435,                             ! Creation Timestamp
  1366305435,                             ! Version Timestamp
  {93b05e92-35fa-4324-9d10-bde091a23960}; ! Name of Object 1

