
OS:Version,
  {a68a9372-27d0-4a65-9674-de74887c2d9d}, ! Handle
  0.9.3;                                  ! Version Identifier

OS:SizingPeriod:DesignDay,
  {06c63060-5358-4b7b-9d6e-5e93fe448efb}, ! Handle
  Spokane International Ap  Che Ann Htg Wind 99% Condns WS=>MCDB, ! Name
  3.1,                                    ! Maximum Dry-Bulb Temperature {C}
  0,                                      ! Daily Dry-Bulb Temperature Range {deltaC}
  3.1,                                    ! Humidity Indicating Conditions at Maximum Dry-Bulb {BasedOnField A3}
  92332,                                  ! Barometric Pressure {Pa}
  12.1,                                   ! Wind Speed {m/s}
  50,                                     ! Wind Direction {deg}
  0,                                      ! Sky Clearness
  0,                                      ! Rain Indicator
  0,                                      ! Snow Indicator
  21,                                     ! Day of Month
  12,                                     ! Month
  WinterDesignDay,                        ! Day Type
  0,                                      ! Daylight Saving Time Indicator
  Wetbulb,                                ! Humidity Indicating Type
  ,                                       ! Humidity Indicating Day Schedule Name
  DefaultMultipliers,                     ! Dry-Bulb Temperature Range Modifier Type
  ,                                       ! Dry-Bulb Temperature Range Modifier Schedule Name
  ASHRAEClearSky;                         ! Solar Model Indicator

OS:ComponentData,
  {369a36ef-cfc7-4903-9a29-f89a4bc11711}, ! Handle
  Component Data 1,                       ! Name
  {4809142d-0d42-47aa-a837-f784f396f55c}, ! UUID
  {942497ce-10ba-4d9c-a1c8-5b0666fd4d3a}, ! Version UUID
  1366311395,                             ! Creation Timestamp
  1366311395,                             ! Version Timestamp
  {06c63060-5358-4b7b-9d6e-5e93fe448efb}; ! Name of Object 1

