
OS:Version,
  {124ed354-d721-47b9-95c6-2bef590ddaed}, ! Handle
  0.9.3;                                  ! Version Identifier

OS:SizingPeriod:DesignDay,
  {aa6b6d4a-bd07-4096-a014-298199468dc5}, ! Handle
  Winnemucca Ann Clg 2% Condns Enth=>MDB, ! Name
  31.1,                                   ! Maximum Dry-Bulb Temperature {C}
  21.5,                                   ! Daily Dry-Bulb Temperature Range {deltaC}
  50300,                                  ! Humidity Indicating Conditions at Maximum Dry-Bulb {BasedOnField A3}
  86493,                                  ! Barometric Pressure {Pa}
  4.4,                                    ! Wind Speed {m/s}
  240,                                    ! Wind Direction {deg}
  0,                                      ! Sky Clearness
  0,                                      ! Rain Indicator
  0,                                      ! Snow Indicator
  21,                                     ! Day of Month
  7,                                      ! Month
  SummerDesignDay,                        ! Day Type
  0,                                      ! Daylight Saving Time Indicator
  Enthalpy,                               ! Humidity Indicating Type
  ,                                       ! Humidity Indicating Day Schedule Name
  DefaultMultipliers,                     ! Dry-Bulb Temperature Range Modifier Type
  ,                                       ! Dry-Bulb Temperature Range Modifier Schedule Name
  ASHRAETau,                              ! Solar Model Indicator
  ,                                       ! Beam Solar Day Schedule Name
  ,                                       ! Diffuse Solar Day Schedule Name
  0.441,                                  ! ASHRAE Taub {dimensionless}
  1.893;                                  ! ASHRAE Taud {dimensionless}

