
OS:Version,
  {bda5f742-63a4-4728-8fc5-d934835b6af8}, ! Handle
  0.9.3;                                  ! Version Identifier

OS:SizingPeriod:DesignDay,
  {ed2618f3-19b0-42bb-a491-ec7e18b77a6b}, ! Handle
  Trenton Mercer County Ap Ann Clg 1% Condns DP=>MDB, ! Name
  27.3,                                   ! Maximum Dry-Bulb Temperature {C}
  10.5,                                   ! Daily Dry-Bulb Temperature Range {deltaC}
  22.7,                                   ! Humidity Indicating Conditions at Maximum Dry-Bulb {BasedOnField A3}
  100547,                                 ! Barometric Pressure {Pa}
  4.7,                                    ! Wind Speed {m/s}
  250,                                    ! Wind Direction {deg}
  0,                                      ! Sky Clearness
  0,                                      ! Rain Indicator
  0,                                      ! Snow Indicator
  21,                                     ! Day of Month
  7,                                      ! Month
  SummerDesignDay,                        ! Day Type
  0,                                      ! Daylight Saving Time Indicator
  Dewpoint,                               ! Humidity Indicating Type
  ,                                       ! Humidity Indicating Day Schedule Name
  DefaultMultipliers,                     ! Dry-Bulb Temperature Range Modifier Type
  ,                                       ! Dry-Bulb Temperature Range Modifier Schedule Name
  ASHRAETau,                              ! Solar Model Indicator
  ,                                       ! Beam Solar Day Schedule Name
  ,                                       ! Diffuse Solar Day Schedule Name
  0.527,                                  ! ASHRAE Taub {dimensionless}
  1.83;                                   ! ASHRAE Taud {dimensionless}

OS:ComponentData,
  {b0b09b71-9485-465f-92f9-dc2871b2b9e0}, ! Handle
  Component Data 1,                       ! Name
  {f1cfa85c-0f32-475d-852c-5ab01648ad56}, ! UUID
  {cfd5667f-cb83-4879-a6b5-875e3068579d}, ! Version UUID
  1366309352,                             ! Creation Timestamp
  1366309352,                             ! Version Timestamp
  {ed2618f3-19b0-42bb-a491-ec7e18b77a6b}; ! Name of Object 1

