
OS:Version,
  {6141152d-523a-443a-b7be-47bd13912539}, ! Handle
  0.9.3;                                  ! Version Identifier

OS:SizingPeriod:DesignDay,
  {4c99e776-1e2a-4cea-8607-51050cc81e35}, ! Handle
  St Cloud Regional Arpt Ann Clg 2% Condns DB=>MWB, ! Name
  28.6,                                   ! Maximum Dry-Bulb Temperature {C}
  12.3,                                   ! Daily Dry-Bulb Temperature Range {deltaC}
  20.6,                                   ! Humidity Indicating Conditions at Maximum Dry-Bulb {BasedOnField A3}
  97644,                                  ! Barometric Pressure {Pa}
  5.1,                                    ! Wind Speed {m/s}
  180,                                    ! Wind Direction {deg}
  0,                                      ! Sky Clearness
  0,                                      ! Rain Indicator
  0,                                      ! Snow Indicator
  21,                                     ! Day of Month
  7,                                      ! Month
  SummerDesignDay,                        ! Day Type
  0,                                      ! Daylight Saving Time Indicator
  Wetbulb,                                ! Humidity Indicating Type
  ,                                       ! Humidity Indicating Day Schedule Name
  DefaultMultipliers,                     ! Dry-Bulb Temperature Range Modifier Type
  ,                                       ! Dry-Bulb Temperature Range Modifier Schedule Name
  ASHRAETau,                              ! Solar Model Indicator
  ,                                       ! Beam Solar Day Schedule Name
  ,                                       ! Diffuse Solar Day Schedule Name
  0.405,                                  ! ASHRAE Taub {dimensionless}
  2.216;                                  ! ASHRAE Taud {dimensionless}

OS:ComponentData,
  {82d1ab37-8921-4e1b-a5ec-2d2bd5ec8bd4}, ! Handle
  Component Data 1,                       ! Name
  {9da62f73-52cc-4cdb-9f1e-5ef392ae9b75}, ! UUID
  {da9fa58b-e1ee-453b-8aed-adfd8c8be63d}, ! Version UUID
  1366308428,                             ! Creation Timestamp
  1366308428,                             ! Version Timestamp
  {4c99e776-1e2a-4cea-8607-51050cc81e35}; ! Name of Object 1

