
OS:Version,
  {7a424a03-de8e-4c15-a248-411921782b6b}, ! Handle
  0.9.3;                                  ! Version Identifier

OS:SizingPeriod:DesignDay,
  {560d4921-907e-472d-b8d0-724e9457dc22}, ! Handle
  Philadelphia International Ap Ann Clg 2% Condns WB=>MDB, ! Name
  28.8,                                   ! Maximum Dry-Bulb Temperature {C}
  9.4,                                    ! Daily Dry-Bulb Temperature Range {deltaC}
  24.3,                                   ! Humidity Indicating Conditions at Maximum Dry-Bulb {BasedOnField A3}
  101301,                                 ! Barometric Pressure {Pa}
  5,                                      ! Wind Speed {m/s}
  240,                                    ! Wind Direction {deg}
  0,                                      ! Sky Clearness
  0,                                      ! Rain Indicator
  0,                                      ! Snow Indicator
  21,                                     ! Day of Month
  7,                                      ! Month
  SummerDesignDay,                        ! Day Type
  0,                                      ! Daylight Saving Time Indicator
  Wetbulb,                                ! Humidity Indicating Type
  ,                                       ! Humidity Indicating Day Schedule Name
  DefaultMultipliers,                     ! Dry-Bulb Temperature Range Modifier Type
  ,                                       ! Dry-Bulb Temperature Range Modifier Schedule Name
  ASHRAETau,                              ! Solar Model Indicator
  ,                                       ! Beam Solar Day Schedule Name
  ,                                       ! Diffuse Solar Day Schedule Name
  0.55,                                   ! ASHRAE Taub {dimensionless}
  1.776;                                  ! ASHRAE Taud {dimensionless}

OS:ComponentData,
  {1c9121b5-a1db-445d-b215-58b1a7fa20af}, ! Handle
  Component Data 1,                       ! Name
  {d885afa9-5bd2-4b89-98a1-181434a6f59c}, ! UUID
  {b18be6a4-84df-4016-acbf-4415e21c1a98}, ! Version UUID
  1366310224,                             ! Creation Timestamp
  1366310224,                             ! Version Timestamp
  {560d4921-907e-472d-b8d0-724e9457dc22}; ! Name of Object 1

