
OS:Version,
  {9fb34eac-4fdf-4929-b7fa-61f5cdd981d2}, ! Handle
  0.9.3;                                  ! Version Identifier

OS:SizingPeriod:DesignDay,
  {8a71c983-40ee-4da7-88ac-542bfe568955}, ! Handle
  Thief River Awos Ann Htg 99.6% Condns DB, ! Name
  -31.1,                                  ! Maximum Dry-Bulb Temperature {C}
  0,                                      ! Daily Dry-Bulb Temperature Range {deltaC}
  -31.1,                                  ! Humidity Indicating Conditions at Maximum Dry-Bulb {BasedOnField A3}
  97307,                                  ! Barometric Pressure {Pa}
  2.8,                                    ! Wind Speed {m/s}
  210,                                    ! Wind Direction {deg}
  0,                                      ! Sky Clearness
  0,                                      ! Rain Indicator
  0,                                      ! Snow Indicator
  21,                                     ! Day of Month
  1,                                      ! Month
  WinterDesignDay,                        ! Day Type
  0,                                      ! Daylight Saving Time Indicator
  Wetbulb,                                ! Humidity Indicating Type
  ,                                       ! Humidity Indicating Day Schedule Name
  DefaultMultipliers,                     ! Dry-Bulb Temperature Range Modifier Type
  ,                                       ! Dry-Bulb Temperature Range Modifier Schedule Name
  ASHRAEClearSky;                         ! Solar Model Indicator

OS:ComponentData,
  {674aaca4-a9ec-4945-955e-015e54217a73}, ! Handle
  Component Data 1,                       ! Name
  {7adef811-282c-410a-b0e6-71bf5ba4f74f}, ! UUID
  {fa014c80-b22b-4087-bb9c-1cf219254cd5}, ! Version UUID
  1366308439,                             ! Creation Timestamp
  1366308439,                             ! Version Timestamp
  {8a71c983-40ee-4da7-88ac-542bfe568955}; ! Name of Object 1

