
OS:Version,
  {58b60f4e-eb68-4f7a-9f7f-ffbdfffb84f7}, ! Handle
  0.9.3;                                  ! Version Identifier

OS:SizingPeriod:DesignDay,
  {49349c01-42f2-4834-a5ee-bb7fda151fa8}, ! Handle
  Rapid City Ann Clg 2% Condns Enth=>MDB, ! Name
  28.4,                                   ! Maximum Dry-Bulb Temperature {C}
  14.8,                                   ! Daily Dry-Bulb Temperature Range {deltaC}
  60700,                                  ! Humidity Indicating Conditions at Maximum Dry-Bulb {BasedOnField A3}
  90246,                                  ! Barometric Pressure {Pa}
  6,                                      ! Wind Speed {m/s}
  180,                                    ! Wind Direction {deg}
  0,                                      ! Sky Clearness
  0,                                      ! Rain Indicator
  0,                                      ! Snow Indicator
  21,                                     ! Day of Month
  7,                                      ! Month
  SummerDesignDay,                        ! Day Type
  0,                                      ! Daylight Saving Time Indicator
  Enthalpy,                               ! Humidity Indicating Type
  ,                                       ! Humidity Indicating Day Schedule Name
  DefaultMultipliers,                     ! Dry-Bulb Temperature Range Modifier Type
  ,                                       ! Dry-Bulb Temperature Range Modifier Schedule Name
  ASHRAETau,                              ! Solar Model Indicator
  ,                                       ! Beam Solar Day Schedule Name
  ,                                       ! Diffuse Solar Day Schedule Name
  0.41,                                   ! ASHRAE Taub {dimensionless}
  2.134;                                  ! ASHRAE Taud {dimensionless}

OS:ComponentData,
  {0f23dc86-dacf-4945-adc3-be76dd04428c}, ! Handle
  Component Data 1,                       ! Name
  {f897d16c-7654-43f1-9a85-f786878af3dc}, ! UUID
  {5df0e3cb-67d4-402a-ba9b-5f9d280762e9}, ! Version UUID
  1366310447,                             ! Creation Timestamp
  1366310447,                             ! Version Timestamp
  {49349c01-42f2-4834-a5ee-bb7fda151fa8}; ! Name of Object 1

