
OS:Version,
  {a5f0afec-9559-4ff7-87a3-2d5754458030}, ! Handle
  0.9.3;                                  ! Version Identifier

OS:SizingPeriod:DesignDay,
  {16af9cb5-2414-413c-bc75-b7e87951c459}, ! Handle
  Santa Rosa  Awos Ann Clg 2% Condns Enth=>MDB, ! Name
  29.4,                                   ! Maximum Dry-Bulb Temperature {C}
  16.8,                                   ! Daily Dry-Bulb Temperature Range {deltaC}
  54100,                                  ! Humidity Indicating Conditions at Maximum Dry-Bulb {BasedOnField A3}
  100869,                                 ! Barometric Pressure {Pa}
  3.9,                                    ! Wind Speed {m/s}
  180,                                    ! Wind Direction {deg}
  0,                                      ! Sky Clearness
  0,                                      ! Rain Indicator
  0,                                      ! Snow Indicator
  21,                                     ! Day of Month
  7,                                      ! Month
  SummerDesignDay,                        ! Day Type
  0,                                      ! Daylight Saving Time Indicator
  Enthalpy,                               ! Humidity Indicating Type
  ,                                       ! Humidity Indicating Day Schedule Name
  DefaultMultipliers,                     ! Dry-Bulb Temperature Range Modifier Type
  ,                                       ! Dry-Bulb Temperature Range Modifier Schedule Name
  ASHRAETau,                              ! Solar Model Indicator
  ,                                       ! Beam Solar Day Schedule Name
  ,                                       ! Diffuse Solar Day Schedule Name
  0.357,                                  ! ASHRAE Taub {dimensionless}
  2.519;                                  ! ASHRAE Taud {dimensionless}

OS:ComponentData,
  {be5e76e7-d160-450f-b540-d1b5cd12008e}, ! Handle
  Component Data 1,                       ! Name
  {49cf610b-15c3-4af1-a434-1d0fd197c75c}, ! UUID
  {62c9234b-9acb-4b12-ad32-8305a704f296}, ! Version UUID
  1366306620,                             ! Creation Timestamp
  1366306620,                             ! Version Timestamp
  {16af9cb5-2414-413c-bc75-b7e87951c459}; ! Name of Object 1

