
OS:Version,
  {bd76da9e-43f7-4f95-955c-67cd4621b8c6}, ! Handle
  0.9.3;                                  ! Version Identifier

OS:SizingPeriod:DesignDay,
  {76cdb0aa-0094-4642-9997-903e943cb98b}, ! Handle
  Wichita Falls Municipal Arpt Ann Htg 99.6% Condns DB, ! Name
  -9.3,                                   ! Maximum Dry-Bulb Temperature {C}
  0,                                      ! Daily Dry-Bulb Temperature Range {deltaC}
  -9.3,                                   ! Humidity Indicating Conditions at Maximum Dry-Bulb {BasedOnField A3}
  97609,                                  ! Barometric Pressure {Pa}
  5.7,                                    ! Wind Speed {m/s}
  0,                                      ! Wind Direction {deg}
  0,                                      ! Sky Clearness
  0,                                      ! Rain Indicator
  0,                                      ! Snow Indicator
  21,                                     ! Day of Month
  1,                                      ! Month
  WinterDesignDay,                        ! Day Type
  0,                                      ! Daylight Saving Time Indicator
  Wetbulb,                                ! Humidity Indicating Type
  ,                                       ! Humidity Indicating Day Schedule Name
  DefaultMultipliers,                     ! Dry-Bulb Temperature Range Modifier Type
  ,                                       ! Dry-Bulb Temperature Range Modifier Schedule Name
  ASHRAEClearSky;                         ! Solar Model Indicator

OS:ComponentData,
  {fe2b1606-6ff8-44a6-9608-e5ecee59fb67}, ! Handle
  Component Data 1,                       ! Name
  {21b5f7ef-9194-472f-942a-d301ff3c98cf}, ! UUID
  {27a122eb-53e1-417d-b7f8-a1cd40cfee01}, ! Version UUID
  1366310935,                             ! Creation Timestamp
  1366310935,                             ! Version Timestamp
  {76cdb0aa-0094-4642-9997-903e943cb98b}; ! Name of Object 1

