
OS:Version,
  {90148104-09b0-4247-828e-2236c5195219}, ! Handle
  0.9.3;                                  ! Version Identifier

OS:SizingPeriod:DesignDay,
  {876cf227-11f6-41b7-843b-8d92dcc26948}, ! Handle
  Omaha Wsfo Ann Clg 2% Condns DP=>MDB,   ! Name
  27.5,                                   ! Maximum Dry-Bulb Temperature {C}
  9.7,                                    ! Daily Dry-Bulb Temperature Range {deltaC}
  21.8,                                   ! Humidity Indicating Conditions at Maximum Dry-Bulb {BasedOnField A3}
  96623,                                  ! Barometric Pressure {Pa}
  4.7,                                    ! Wind Speed {m/s}
  170,                                    ! Wind Direction {deg}
  0,                                      ! Sky Clearness
  0,                                      ! Rain Indicator
  0,                                      ! Snow Indicator
  21,                                     ! Day of Month
  7,                                      ! Month
  SummerDesignDay,                        ! Day Type
  0,                                      ! Daylight Saving Time Indicator
  Dewpoint,                               ! Humidity Indicating Type
  ,                                       ! Humidity Indicating Day Schedule Name
  DefaultMultipliers,                     ! Dry-Bulb Temperature Range Modifier Type
  ,                                       ! Dry-Bulb Temperature Range Modifier Schedule Name
  ASHRAETau,                              ! Solar Model Indicator
  ,                                       ! Beam Solar Day Schedule Name
  ,                                       ! Diffuse Solar Day Schedule Name
  0.414,                                  ! ASHRAE Taub {dimensionless}
  2.216;                                  ! ASHRAE Taud {dimensionless}

OS:ComponentData,
  {043c7e5f-0a64-46ff-9d7a-7bedfa9b86db}, ! Handle
  Component Data 1,                       ! Name
  {794543b8-638a-42cc-8227-404d533021f0}, ! UUID
  {31837c2e-838e-4bcd-86b3-963efc9a775a}, ! Version UUID
  1366309182,                             ! Creation Timestamp
  1366309182,                             ! Version Timestamp
  {876cf227-11f6-41b7-843b-8d92dcc26948}; ! Name of Object 1

