
OS:Version,
  {89b9deb2-1f66-4fc1-8a43-ee4607ce438a}, ! Handle
  0.9.3;                                  ! Version Identifier

OS:SizingPeriod:DesignDay,
  {de783f2f-e091-436b-b951-5fc653b743c9}, ! Handle
  White Plains Westchester Co A Ann Htg Wind 99.6% Condns WS=>MCDB, ! Name
  -5.3,                                   ! Maximum Dry-Bulb Temperature {C}
  0,                                      ! Daily Dry-Bulb Temperature Range {deltaC}
  -5.3,                                   ! Humidity Indicating Conditions at Maximum Dry-Bulb {BasedOnField A3}
  99868,                                  ! Barometric Pressure {Pa}
  11.4,                                   ! Wind Speed {m/s}
  320,                                    ! Wind Direction {deg}
  0,                                      ! Sky Clearness
  0,                                      ! Rain Indicator
  0,                                      ! Snow Indicator
  21,                                     ! Day of Month
  1,                                      ! Month
  WinterDesignDay,                        ! Day Type
  0,                                      ! Daylight Saving Time Indicator
  Wetbulb,                                ! Humidity Indicating Type
  ,                                       ! Humidity Indicating Day Schedule Name
  DefaultMultipliers,                     ! Dry-Bulb Temperature Range Modifier Type
  ,                                       ! Dry-Bulb Temperature Range Modifier Schedule Name
  ASHRAEClearSky;                         ! Solar Model Indicator

OS:ComponentData,
  {534375d8-4172-4859-816e-b63d92cd21ff}, ! Handle
  Component Data 1,                       ! Name
  {b41c96eb-28de-42c4-b7e3-c1e52813b069}, ! UUID
  {a2ceb7ad-ad54-44e0-a700-569e3c10e31d}, ! Version UUID
  1366309754,                             ! Creation Timestamp
  1366309754,                             ! Version Timestamp
  {de783f2f-e091-436b-b951-5fc653b743c9}; ! Name of Object 1

