
OS:Version,
  {880e7c84-38a9-4bbe-8c41-ced6cb00fc42}, ! Handle
  0.9.3;                                  ! Version Identifier

OS:SizingPeriod:DesignDay,
  {070113b7-a81b-4ff9-9e1c-3edc2b35589c}, ! Handle
  Mount Shasta Ann Htg 99% Condns DB,     ! Name
  -6,                                     ! Maximum Dry-Bulb Temperature {C}
  0,                                      ! Daily Dry-Bulb Temperature Range {deltaC}
  -6,                                     ! Humidity Indicating Conditions at Maximum Dry-Bulb {BasedOnField A3}
  89038,                                  ! Barometric Pressure {Pa}
  1.3,                                    ! Wind Speed {m/s}
  50,                                     ! Wind Direction {deg}
  0,                                      ! Sky Clearness
  0,                                      ! Rain Indicator
  0,                                      ! Snow Indicator
  21,                                     ! Day of Month
  12,                                     ! Month
  WinterDesignDay,                        ! Day Type
  0,                                      ! Daylight Saving Time Indicator
  Wetbulb,                                ! Humidity Indicating Type
  ,                                       ! Humidity Indicating Day Schedule Name
  DefaultMultipliers,                     ! Dry-Bulb Temperature Range Modifier Type
  ,                                       ! Dry-Bulb Temperature Range Modifier Schedule Name
  ASHRAEClearSky;                         ! Solar Model Indicator

OS:ComponentData,
  {3cce6753-8e25-4e42-a203-99a85596adb7}, ! Handle
  Component Data 1,                       ! Name
  {86072932-50d7-44f2-b82e-599fe1c0c939}, ! UUID
  {69b611bd-76b2-4554-b4c2-8ea72a578aeb}, ! Version UUID
  1366306502,                             ! Creation Timestamp
  1366306502,                             ! Version Timestamp
  {070113b7-a81b-4ff9-9e1c-3edc2b35589c}; ! Name of Object 1

