
OS:Version,
  {ca948383-c78f-4c0f-84e2-512b73e98d41}, ! Handle
  0.9.3;                                  ! Version Identifier

OS:SizingPeriod:DesignDay,
  {904d50d1-6d8e-4351-95bf-9461b6446c63}, ! Handle
  Stillwater Rgnl Ann Clg 2% Condns WB=>MDB, ! Name
  32.7,                                   ! Maximum Dry-Bulb Temperature {C}
  12.5,                                   ! Daily Dry-Bulb Temperature Range {deltaC}
  25,                                     ! Humidity Indicating Conditions at Maximum Dry-Bulb {BasedOnField A3}
  97679,                                  ! Barometric Pressure {Pa}
  5.6,                                    ! Wind Speed {m/s}
  160,                                    ! Wind Direction {deg}
  0,                                      ! Sky Clearness
  0,                                      ! Rain Indicator
  0,                                      ! Snow Indicator
  21,                                     ! Day of Month
  7,                                      ! Month
  SummerDesignDay,                        ! Day Type
  0,                                      ! Daylight Saving Time Indicator
  Wetbulb,                                ! Humidity Indicating Type
  ,                                       ! Humidity Indicating Day Schedule Name
  DefaultMultipliers,                     ! Dry-Bulb Temperature Range Modifier Type
  ,                                       ! Dry-Bulb Temperature Range Modifier Schedule Name
  ASHRAETau,                              ! Solar Model Indicator
  ,                                       ! Beam Solar Day Schedule Name
  ,                                       ! Diffuse Solar Day Schedule Name
  0.433,                                  ! ASHRAE Taub {dimensionless}
  2.181;                                  ! ASHRAE Taud {dimensionless}

OS:ComponentData,
  {b95e1755-114f-4b1a-8b9a-f5ad9f655f33}, ! Handle
  Component Data 1,                       ! Name
  {d44c3149-13eb-4952-a9a0-a0418493a639}, ! UUID
  {2bbbf396-9713-4558-811c-1eda4957db68}, ! Version UUID
  1366309945,                             ! Creation Timestamp
  1366309945,                             ! Version Timestamp
  {904d50d1-6d8e-4351-95bf-9461b6446c63}; ! Name of Object 1

