
OS:Version,
  {ab381ec2-ceb7-4be5-849d-027ad4929841}, ! Handle
  0.9.3;                                  ! Version Identifier

OS:SizingPeriod:DesignDay,
  {31d32e29-494c-40e7-b808-500906f5831f}, ! Handle
  Norfolk Ann Clg 1% Condns Enth=>MDB,    ! Name
  30.6,                                   ! Maximum Dry-Bulb Temperature {C}
  8.1,                                    ! Daily Dry-Bulb Temperature Range {deltaC}
  78200,                                  ! Humidity Indicating Conditions at Maximum Dry-Bulb {BasedOnField A3}
  101217,                                 ! Barometric Pressure {Pa}
  5,                                      ! Wind Speed {m/s}
  240,                                    ! Wind Direction {deg}
  0,                                      ! Sky Clearness
  0,                                      ! Rain Indicator
  0,                                      ! Snow Indicator
  21,                                     ! Day of Month
  7,                                      ! Month
  SummerDesignDay,                        ! Day Type
  0,                                      ! Daylight Saving Time Indicator
  Enthalpy,                               ! Humidity Indicating Type
  ,                                       ! Humidity Indicating Day Schedule Name
  DefaultMultipliers,                     ! Dry-Bulb Temperature Range Modifier Type
  ,                                       ! Dry-Bulb Temperature Range Modifier Schedule Name
  ASHRAETau,                              ! Solar Model Indicator
  ,                                       ! Beam Solar Day Schedule Name
  ,                                       ! Diffuse Solar Day Schedule Name
  0.59,                                   ! ASHRAE Taub {dimensionless}
  1.703;                                  ! ASHRAE Taud {dimensionless}

OS:ComponentData,
  {7824c0f5-e31f-448d-a4c7-b2b313b5799b}, ! Handle
  Component Data 1,                       ! Name
  {356ea722-7394-436e-8ac4-9f2bfe242003}, ! UUID
  {3717e5a5-efaa-4ec5-a4b2-1b49bcfad244}, ! Version UUID
  1366311130,                             ! Creation Timestamp
  1366311130,                             ! Version Timestamp
  {31d32e29-494c-40e7-b808-500906f5831f}; ! Name of Object 1

