
OS:Version,
  {30a64a0b-780a-4180-924f-d90917d3d55b}, ! Handle
  0.9.3;                                  ! Version Identifier

OS:SizingPeriod:DesignDay,
  {ed534d50-b6f7-4b93-a069-965dc3394fc0}, ! Handle
  NORTH_PLATTE Ann Clg .4% Condns DP=>MDB, ! Name
  27,                                     ! Maximum Dry-Bulb Temperature {C}
  14.5,                                   ! Daily Dry-Bulb Temperature Range {deltaC}
  21.3,                                   ! Humidity Indicating Conditions at Maximum Dry-Bulb {BasedOnField A3}
  91533,                                  ! Barometric Pressure {Pa}
  5.5,                                    ! Wind Speed {m/s}
  180,                                    ! Wind Direction {deg}
  0,                                      ! Sky Clearness
  0,                                      ! Rain Indicator
  0,                                      ! Snow Indicator
  21,                                     ! Day of Month
  7,                                      ! Month
  SummerDesignDay,                        ! Day Type
  0,                                      ! Daylight Saving Time Indicator
  Dewpoint,                               ! Humidity Indicating Type
  ,                                       ! Humidity Indicating Day Schedule Name
  DefaultMultipliers,                     ! Dry-Bulb Temperature Range Modifier Type
  ,                                       ! Dry-Bulb Temperature Range Modifier Schedule Name
  ASHRAETau,                              ! Solar Model Indicator
  ,                                       ! Beam Solar Day Schedule Name
  ,                                       ! Diffuse Solar Day Schedule Name
  0.417,                                  ! ASHRAE Taub {dimensionless}
  2.141;                                  ! ASHRAE Taud {dimensionless}

OS:ComponentData,
  {5415e7f7-2b59-45c9-bef0-071daee67da0}, ! Handle
  Component Data 1,                       ! Name
  {6d1d2316-55f7-4b28-955e-20e816cc53b6}, ! UUID
  {15e23f34-69ab-4e27-a5ce-39e9df984352}, ! Version UUID
  1366309158,                             ! Creation Timestamp
  1366309158,                             ! Version Timestamp
  {ed534d50-b6f7-4b93-a069-965dc3394fc0}; ! Name of Object 1

