
OS:Version,
  {c7b3373f-7066-405c-beea-a5152ace91c9}, ! Handle
  0.9.3;                                  ! Version Identifier

OS:SizingPeriod:DesignDay,
  {6cb3b181-ab34-4391-9634-1d204872183b}, ! Handle
  Topeka Municipal Ap Ann Hum_n 99.6% Condns DP=>MCDB, ! Name
  -16.7,                                  ! Maximum Dry-Bulb Temperature {C}
  0,                                      ! Daily Dry-Bulb Temperature Range {deltaC}
  -23.1,                                  ! Humidity Indicating Conditions at Maximum Dry-Bulb {BasedOnField A3}
  98135,                                  ! Barometric Pressure {Pa}
  3.6,                                    ! Wind Speed {m/s}
  320,                                    ! Wind Direction {deg}
  0,                                      ! Sky Clearness
  0,                                      ! Rain Indicator
  0,                                      ! Snow Indicator
  21,                                     ! Day of Month
  1,                                      ! Month
  WinterDesignDay,                        ! Day Type
  0,                                      ! Daylight Saving Time Indicator
  Dewpoint,                               ! Humidity Indicating Type
  ,                                       ! Humidity Indicating Day Schedule Name
  DefaultMultipliers,                     ! Dry-Bulb Temperature Range Modifier Type
  ,                                       ! Dry-Bulb Temperature Range Modifier Schedule Name
  ASHRAEClearSky;                         ! Solar Model Indicator

OS:ComponentData,
  {b67dc69e-ec54-48cb-83e9-abc27925ad95}, ! Handle
  Component Data 1,                       ! Name
  {5473375d-ad21-48aa-bde2-a979de2fe559}, ! UUID
  {1ca68020-0904-4afd-9e2f-8cdfb343f8ba}, ! Version UUID
  1366307587,                             ! Creation Timestamp
  1366307587,                             ! Version Timestamp
  {6cb3b181-ab34-4391-9634-1d204872183b}; ! Name of Object 1

