
OS:Version,
  {5558ea04-448b-40e5-8752-217322f363e8}, ! Handle
  0.9.3;                                  ! Version Identifier

OS:SizingPeriod:DesignDay,
  {7a997f56-ef37-4324-9246-d1ffc68a4ece}, ! Handle
  San Francisco Ann Clg 1% Condns WB=>MDB, ! Name
  23.9,                                   ! Maximum Dry-Bulb Temperature {C}
  8.5,                                    ! Daily Dry-Bulb Temperature Range {deltaC}
  17.8,                                   ! Humidity Indicating Conditions at Maximum Dry-Bulb {BasedOnField A3}
  101265,                                 ! Barometric Pressure {Pa}
  5.9,                                    ! Wind Speed {m/s}
  310,                                    ! Wind Direction {deg}
  0,                                      ! Sky Clearness
  0,                                      ! Rain Indicator
  0,                                      ! Snow Indicator
  21,                                     ! Day of Month
  8,                                      ! Month
  SummerDesignDay,                        ! Day Type
  0,                                      ! Daylight Saving Time Indicator
  Wetbulb,                                ! Humidity Indicating Type
  ,                                       ! Humidity Indicating Day Schedule Name
  DefaultMultipliers,                     ! Dry-Bulb Temperature Range Modifier Type
  ,                                       ! Dry-Bulb Temperature Range Modifier Schedule Name
  ASHRAETau,                              ! Solar Model Indicator
  ,                                       ! Beam Solar Day Schedule Name
  ,                                       ! Diffuse Solar Day Schedule Name
  0.365,                                  ! ASHRAE Taub {dimensionless}
  2.435;                                  ! ASHRAE Taud {dimensionless}

OS:ComponentData,
  {ad870e7c-3939-4284-89fb-f3055d2cdf19}, ! Handle
  Component Data 1,                       ! Name
  {101f5720-2d6d-49b5-8255-6115c001b702}, ! UUID
  {81528364-1ba6-4d54-a24e-9f59e2e91015}, ! Version UUID
  1366306593,                             ! Creation Timestamp
  1366306593,                             ! Version Timestamp
  {7a997f56-ef37-4324-9246-d1ffc68a4ece}; ! Name of Object 1

