
OS:Version,
  {6dfbfb7b-28cc-4c17-9596-74cfdda191b8}, ! Handle
  0.9.3;                                  ! Version Identifier

OS:SizingPeriod:DesignDay,
  {b6562f32-5016-4a57-a539-40755e718459}, ! Handle
  Sidney Municipal Ap Ann Htg Wind 99.6% Condns WS=>MCDB, ! Name
  1.8,                                    ! Maximum Dry-Bulb Temperature {C}
  0,                                      ! Daily Dry-Bulb Temperature Range {deltaC}
  1.8,                                    ! Humidity Indicating Conditions at Maximum Dry-Bulb {BasedOnField A3}
  86514,                                  ! Barometric Pressure {Pa}
  16.4,                                   ! Wind Speed {m/s}
  300,                                    ! Wind Direction {deg}
  0,                                      ! Sky Clearness
  0,                                      ! Rain Indicator
  0,                                      ! Snow Indicator
  21,                                     ! Day of Month
  12,                                     ! Month
  WinterDesignDay,                        ! Day Type
  0,                                      ! Daylight Saving Time Indicator
  Wetbulb,                                ! Humidity Indicating Type
  ,                                       ! Humidity Indicating Day Schedule Name
  DefaultMultipliers,                     ! Dry-Bulb Temperature Range Modifier Type
  ,                                       ! Dry-Bulb Temperature Range Modifier Schedule Name
  ASHRAEClearSky;                         ! Solar Model Indicator

OS:ComponentData,
  {3becad78-5402-4bd8-87bb-592e6a1153c4}, ! Handle
  Component Data 1,                       ! Name
  {0ac6458b-7d4d-416c-80e6-fcaa7303b444}, ! UUID
  {767e04db-79da-4242-8c5e-c9fde0371b1d}, ! Version UUID
  1366309202,                             ! Creation Timestamp
  1366309202,                             ! Version Timestamp
  {b6562f32-5016-4a57-a539-40755e718459}; ! Name of Object 1

