
OS:Version,
  {edc778c5-22cd-41d9-aeab-d5e2fb01eaad}, ! Handle
  0.9.3;                                  ! Version Identifier

OS:SizingPeriod:DesignDay,
  {6bc3e768-f051-4392-8096-5da38db7c08c}, ! Handle
  MILES_CITY Ann Clg .4% Condns DP=>MDB,  ! Name
  24.5,                                   ! Maximum Dry-Bulb Temperature {C}
  14.9,                                   ! Daily Dry-Bulb Temperature Range {deltaC}
  17.7,                                   ! Humidity Indicating Conditions at Maximum Dry-Bulb {BasedOnField A3}
  92043,                                  ! Barometric Pressure {Pa}
  4.7,                                    ! Wind Speed {m/s}
  140,                                    ! Wind Direction {deg}
  0,                                      ! Sky Clearness
  0,                                      ! Rain Indicator
  0,                                      ! Snow Indicator
  21,                                     ! Day of Month
  7,                                      ! Month
  SummerDesignDay,                        ! Day Type
  0,                                      ! Daylight Saving Time Indicator
  Dewpoint,                               ! Humidity Indicating Type
  ,                                       ! Humidity Indicating Day Schedule Name
  DefaultMultipliers,                     ! Dry-Bulb Temperature Range Modifier Type
  ,                                       ! Dry-Bulb Temperature Range Modifier Schedule Name
  ASHRAETau,                              ! Solar Model Indicator
  ,                                       ! Beam Solar Day Schedule Name
  ,                                       ! Diffuse Solar Day Schedule Name
  0.418,                                  ! ASHRAE Taub {dimensionless}
  2.061;                                  ! ASHRAE Taud {dimensionless}

OS:ComponentData,
  {b616c774-cc9b-4b11-ab1f-fbba0e107706}, ! Handle
  Component Data 1,                       ! Name
  {73fbaf45-cd3b-4272-b069-f55015ce1fc0}, ! UUID
  {ff180468-a492-42f9-9461-e6e5614efb19}, ! Version UUID
  1366308828,                             ! Creation Timestamp
  1366308828,                             ! Version Timestamp
  {6bc3e768-f051-4392-8096-5da38db7c08c}; ! Name of Object 1

