
OS:Version,
  {3b01bca8-21e4-4239-be0d-bbed46d11689}, ! Handle
  0.9.3;                                  ! Version Identifier

OS:SizingPeriod:DesignDay,
  {875051cf-d91d-44d0-b2ac-f28acc9a854f}, ! Handle
  Norfolk Nas Ann Clg 2% Condns Enth=>MDB, ! Name
  30.1,                                   ! Maximum Dry-Bulb Temperature {C}
  7.9,                                    ! Daily Dry-Bulb Temperature Range {deltaC}
  77400,                                  ! Humidity Indicating Conditions at Maximum Dry-Bulb {BasedOnField A3}
  101205,                                 ! Barometric Pressure {Pa}
  4.3,                                    ! Wind Speed {m/s}
  210,                                    ! Wind Direction {deg}
  0,                                      ! Sky Clearness
  0,                                      ! Rain Indicator
  0,                                      ! Snow Indicator
  21,                                     ! Day of Month
  7,                                      ! Month
  SummerDesignDay,                        ! Day Type
  0,                                      ! Daylight Saving Time Indicator
  Enthalpy,                               ! Humidity Indicating Type
  ,                                       ! Humidity Indicating Day Schedule Name
  DefaultMultipliers,                     ! Dry-Bulb Temperature Range Modifier Type
  ,                                       ! Dry-Bulb Temperature Range Modifier Schedule Name
  ASHRAETau,                              ! Solar Model Indicator
  ,                                       ! Beam Solar Day Schedule Name
  ,                                       ! Diffuse Solar Day Schedule Name
  0.593,                                  ! ASHRAE Taub {dimensionless}
  1.694;                                  ! ASHRAE Taud {dimensionless}

OS:ComponentData,
  {f52b5e2a-7200-4284-817f-af9c4bd16a8d}, ! Handle
  Component Data 1,                       ! Name
  {0a1d24d3-de8e-4fca-b382-ce42b468ac48}, ! UUID
  {67f605e6-d64b-4fcd-ac82-d34593012cee}, ! Version UUID
  1366311141,                             ! Creation Timestamp
  1366311141,                             ! Version Timestamp
  {875051cf-d91d-44d0-b2ac-f28acc9a854f}; ! Name of Object 1

