
OS:Version,
  {99ce7a6a-06b0-40a4-9d31-79e6b7964cdf}, ! Handle
  0.9.3;                                  ! Version Identifier

OS:SizingPeriod:DesignDay,
  {d212ff17-d889-4b3f-8ccb-b94ea7f80c46}, ! Handle
  Pullman Moscow Rgnl Ann Hum_n 99% Condns DP=>MCDB, ! Name
  -6.8,                                   ! Maximum Dry-Bulb Temperature {C}
  0,                                      ! Daily Dry-Bulb Temperature Range {deltaC}
  -11.3,                                  ! Humidity Indicating Conditions at Maximum Dry-Bulb {BasedOnField A3}
  92321,                                  ! Barometric Pressure {Pa}
  1.9,                                    ! Wind Speed {m/s}
  70,                                     ! Wind Direction {deg}
  0,                                      ! Sky Clearness
  0,                                      ! Rain Indicator
  0,                                      ! Snow Indicator
  21,                                     ! Day of Month
  12,                                     ! Month
  WinterDesignDay,                        ! Day Type
  0,                                      ! Daylight Saving Time Indicator
  Dewpoint,                               ! Humidity Indicating Type
  ,                                       ! Humidity Indicating Day Schedule Name
  DefaultMultipliers,                     ! Dry-Bulb Temperature Range Modifier Type
  ,                                       ! Dry-Bulb Temperature Range Modifier Schedule Name
  ASHRAEClearSky;                         ! Solar Model Indicator

OS:ComponentData,
  {5c5c4e9d-6fb4-4760-a793-c6957c08fd83}, ! Handle
  Component Data 1,                       ! Name
  {181c6e41-9cc6-435c-9674-ad6e96c4b344}, ! UUID
  {f2f062e8-e9da-4c48-ba7d-bdfa3403bee6}, ! Version UUID
  1366311330,                             ! Creation Timestamp
  1366311330,                             ! Version Timestamp
  {d212ff17-d889-4b3f-8ccb-b94ea7f80c46}; ! Name of Object 1

