
OS:Version,
  {5da4f97a-ce65-4de9-856f-70d641359549}, ! Handle
  0.9.3;                                  ! Version Identifier

OS:SizingPeriod:DesignDay,
  {9e4053b5-dad5-4781-900e-6dffceeb09ee}, ! Handle
  Republic Ann Clg 1% Condns WB=>MDB,     ! Name
  28,                                     ! Maximum Dry-Bulb Temperature {C}
  8,                                      ! Daily Dry-Bulb Temperature Range {deltaC}
  24.2,                                   ! Humidity Indicating Conditions at Maximum Dry-Bulb {BasedOnField A3}
  101013,                                 ! Barometric Pressure {Pa}
  5.5,                                    ! Wind Speed {m/s}
  210,                                    ! Wind Direction {deg}
  0,                                      ! Sky Clearness
  0,                                      ! Rain Indicator
  0,                                      ! Snow Indicator
  21,                                     ! Day of Month
  7,                                      ! Month
  SummerDesignDay,                        ! Day Type
  0,                                      ! Daylight Saving Time Indicator
  Wetbulb,                                ! Humidity Indicating Type
  ,                                       ! Humidity Indicating Day Schedule Name
  DefaultMultipliers,                     ! Dry-Bulb Temperature Range Modifier Type
  ,                                       ! Dry-Bulb Temperature Range Modifier Schedule Name
  ASHRAETau,                              ! Solar Model Indicator
  ,                                       ! Beam Solar Day Schedule Name
  ,                                       ! Diffuse Solar Day Schedule Name
  0.541,                                  ! ASHRAE Taub {dimensionless}
  1.799;                                  ! ASHRAE Taud {dimensionless}

OS:ComponentData,
  {27c65093-f6a8-46f3-b03e-45f6901d3d98}, ! Handle
  Component Data 1,                       ! Name
  {6b8eed1e-fcbe-4ad7-9339-201e001251d4}, ! UUID
  {b4d12716-d1b0-480b-85d2-8ed2e74fdd2e}, ! Version UUID
  1366309709,                             ! Creation Timestamp
  1366309709,                             ! Version Timestamp
  {9e4053b5-dad5-4781-900e-6dffceeb09ee}; ! Name of Object 1

