
OS:Version,
  {b7618988-af12-4db5-9951-27261c5f2e11}, ! Handle
  0.9.3;                                  ! Version Identifier

OS:SizingPeriod:DesignDay,
  {ad2d8c3a-6ea9-4e6f-bddb-46cd494cf224}, ! Handle
  Winslow Municipal Ap Ann Htg 99% Condns DB, ! Name
  -9.3,                                   ! Maximum Dry-Bulb Temperature {C}
  0,                                      ! Daily Dry-Bulb Temperature Range {deltaC}
  -9.3,                                   ! Humidity Indicating Conditions at Maximum Dry-Bulb {BasedOnField A3}
  84660,                                  ! Barometric Pressure {Pa}
  1.6,                                    ! Wind Speed {m/s}
  130,                                    ! Wind Direction {deg}
  0,                                      ! Sky Clearness
  0,                                      ! Rain Indicator
  0,                                      ! Snow Indicator
  21,                                     ! Day of Month
  12,                                     ! Month
  WinterDesignDay,                        ! Day Type
  0,                                      ! Daylight Saving Time Indicator
  Wetbulb,                                ! Humidity Indicating Type
  ,                                       ! Humidity Indicating Day Schedule Name
  DefaultMultipliers,                     ! Dry-Bulb Temperature Range Modifier Type
  ,                                       ! Dry-Bulb Temperature Range Modifier Schedule Name
  ASHRAEClearSky;                         ! Solar Model Indicator

OS:ComponentData,
  {3ebdf63c-ef3d-404d-9bf6-a163082b4ce3}, ! Handle
  Component Data 1,                       ! Name
  {18036050-e436-4cbd-827d-a1f0772476f5}, ! UUID
  {d57527da-990b-42ef-b50e-6936670415bf}, ! Version UUID
  1366306330,                             ! Creation Timestamp
  1366306330,                             ! Version Timestamp
  {ad2d8c3a-6ea9-4e6f-bddb-46cd494cf224}; ! Name of Object 1

