
OS:Version,
  {7fe4b2c3-89cc-4d2e-af03-e185b8705ffb}, ! Handle
  0.9.3;                                  ! Version Identifier

OS:SizingPeriod:DesignDay,
  {d31f29c9-8a25-49c2-975d-f55947bc461e}, ! Handle
  Redmond Ann Clg .4% Condns WB=>MDB,     ! Name
  31.4,                                   ! Maximum Dry-Bulb Temperature {C}
  20,                                     ! Daily Dry-Bulb Temperature Range {deltaC}
  17.7,                                   ! Humidity Indicating Conditions at Maximum Dry-Bulb {BasedOnField A3}
  90552,                                  ! Barometric Pressure {Pa}
  4.7,                                    ! Wind Speed {m/s}
  350,                                    ! Wind Direction {deg}
  0,                                      ! Sky Clearness
  0,                                      ! Rain Indicator
  0,                                      ! Snow Indicator
  21,                                     ! Day of Month
  7,                                      ! Month
  SummerDesignDay,                        ! Day Type
  0,                                      ! Daylight Saving Time Indicator
  Wetbulb,                                ! Humidity Indicating Type
  ,                                       ! Humidity Indicating Day Schedule Name
  DefaultMultipliers,                     ! Dry-Bulb Temperature Range Modifier Type
  ,                                       ! Dry-Bulb Temperature Range Modifier Schedule Name
  ASHRAETau,                              ! Solar Model Indicator
  ,                                       ! Beam Solar Day Schedule Name
  ,                                       ! Diffuse Solar Day Schedule Name
  0.355,                                  ! ASHRAE Taub {dimensionless}
  2.422;                                  ! ASHRAE Taud {dimensionless}

OS:ComponentData,
  {2c0f011c-dc91-4995-b5a8-286bcfec4410}, ! Handle
  Component Data 1,                       ! Name
  {1700ee0e-df0e-4544-a908-2e75ac0f0177}, ! UUID
  {2162bf88-7f61-46ac-b05a-b459c274f92e}, ! Version UUID
  1366310093,                             ! Creation Timestamp
  1366310093,                             ! Version Timestamp
  {d31f29c9-8a25-49c2-975d-f55947bc461e}; ! Name of Object 1

