
OS:Version,
  {7ceb680a-6fab-4322-96db-f92fc838cdfd}, ! Handle
  0.9.3;                                  ! Version Identifier

OS:SizingPeriod:DesignDay,
  {10592cb4-b994-437e-9324-873e41f039b5}, ! Handle
  Middletown Harrisburg Intl Ap Ann Clg 1% Condns WB=>MDB, ! Name
  29.6,                                   ! Maximum Dry-Bulb Temperature {C}
  9.6,                                    ! Daily Dry-Bulb Temperature Range {deltaC}
  24.7,                                   ! Humidity Indicating Conditions at Maximum Dry-Bulb {BasedOnField A3}
  100225,                                 ! Barometric Pressure {Pa}
  4.4,                                    ! Wind Speed {m/s}
  300,                                    ! Wind Direction {deg}
  0,                                      ! Sky Clearness
  0,                                      ! Rain Indicator
  0,                                      ! Snow Indicator
  21,                                     ! Day of Month
  7,                                      ! Month
  SummerDesignDay,                        ! Day Type
  0,                                      ! Daylight Saving Time Indicator
  Wetbulb,                                ! Humidity Indicating Type
  ,                                       ! Humidity Indicating Day Schedule Name
  DefaultMultipliers,                     ! Dry-Bulb Temperature Range Modifier Type
  ,                                       ! Dry-Bulb Temperature Range Modifier Schedule Name
  ASHRAETau,                              ! Solar Model Indicator
  ,                                       ! Beam Solar Day Schedule Name
  ,                                       ! Diffuse Solar Day Schedule Name
  0.521,                                  ! ASHRAE Taub {dimensionless}
  1.834;                                  ! ASHRAE Taud {dimensionless}

OS:ComponentData,
  {0e1cb6ba-3604-4e42-a098-cbcc885c39c2}, ! Handle
  Component Data 1,                       ! Name
  {3147af6f-8377-4842-b623-320544661c2b}, ! UUID
  {49ca3138-3486-4119-aa15-c3ec70cba6e9}, ! Version UUID
  1366310197,                             ! Creation Timestamp
  1366310197,                             ! Version Timestamp
  {10592cb4-b994-437e-9324-873e41f039b5}; ! Name of Object 1

