
OS:Version,
  {e5c57b86-13fe-4e01-941a-502dc3f3a0a3}, ! Handle
  0.9.3;                                  ! Version Identifier

OS:SizingPeriod:DesignDay,
  {398427fa-4d7e-4a3f-8245-4b6fc25e2fde}, ! Handle
  Salt Lake City IntL Arpt  Isi Ann Hum_n 99% Condns DP=>MCDB, ! Name
  -7.5,                                   ! Maximum Dry-Bulb Temperature {C}
  0,                                      ! Daily Dry-Bulb Temperature Range {deltaC}
  -13.6,                                  ! Humidity Indicating Conditions at Maximum Dry-Bulb {BasedOnField A3}
  86779,                                  ! Barometric Pressure {Pa}
  2.8,                                    ! Wind Speed {m/s}
  150,                                    ! Wind Direction {deg}
  0,                                      ! Sky Clearness
  0,                                      ! Rain Indicator
  0,                                      ! Snow Indicator
  21,                                     ! Day of Month
  1,                                      ! Month
  WinterDesignDay,                        ! Day Type
  0,                                      ! Daylight Saving Time Indicator
  Dewpoint,                               ! Humidity Indicating Type
  ,                                       ! Humidity Indicating Day Schedule Name
  DefaultMultipliers,                     ! Dry-Bulb Temperature Range Modifier Type
  ,                                       ! Dry-Bulb Temperature Range Modifier Schedule Name
  ASHRAEClearSky;                         ! Solar Model Indicator

OS:ComponentData,
  {64da9fd0-ffe7-4420-b071-dac97ae1459a}, ! Handle
  Component Data 1,                       ! Name
  {d497e353-7957-4033-8d05-375ab975ad33}, ! UUID
  {dae3ea51-541e-4d39-bdd5-03152d364a9c}, ! Version UUID
  1366310998,                             ! Creation Timestamp
  1366310998,                             ! Version Timestamp
  {398427fa-4d7e-4a3f-8245-4b6fc25e2fde}; ! Name of Object 1

