
OS:Version,
  {95fdf6f5-b567-4813-b7b2-1e88d9c3ef60}, ! Handle
  0.9.3;                                  ! Version Identifier

OS:SizingPeriod:DesignDay,
  {b298eec3-3018-49d2-85b3-7be5501b9034}, ! Handle
  Panama City Bay Co Ann Clg .4% Condns WB=>MDB, ! Name
  30.5,                                   ! Maximum Dry-Bulb Temperature {C}
  7.6,                                    ! Daily Dry-Bulb Temperature Range {deltaC}
  27.5,                                   ! Humidity Indicating Conditions at Maximum Dry-Bulb {BasedOnField A3}
  101253,                                 ! Barometric Pressure {Pa}
  4.1,                                    ! Wind Speed {m/s}
  260,                                    ! Wind Direction {deg}
  0,                                      ! Sky Clearness
  0,                                      ! Rain Indicator
  0,                                      ! Snow Indicator
  21,                                     ! Day of Month
  7,                                      ! Month
  SummerDesignDay,                        ! Day Type
  0,                                      ! Daylight Saving Time Indicator
  Wetbulb,                                ! Humidity Indicating Type
  ,                                       ! Humidity Indicating Day Schedule Name
  DefaultMultipliers,                     ! Dry-Bulb Temperature Range Modifier Type
  ,                                       ! Dry-Bulb Temperature Range Modifier Schedule Name
  ASHRAETau,                              ! Solar Model Indicator
  ,                                       ! Beam Solar Day Schedule Name
  ,                                       ! Diffuse Solar Day Schedule Name
  0.522,                                  ! ASHRAE Taub {dimensionless}
  1.923;                                  ! ASHRAE Taud {dimensionless}

OS:ComponentData,
  {6475454c-b24e-45cc-8f69-159296c69be1}, ! Handle
  Component Data 1,                       ! Name
  {071aa2c0-4a53-4d85-9453-02d0257e8764}, ! UUID
  {f2121e51-7f74-4706-b86b-16fd5e5096bb}, ! Version UUID
  1366306899,                             ! Creation Timestamp
  1366306899,                             ! Version Timestamp
  {b298eec3-3018-49d2-85b3-7be5501b9034}; ! Name of Object 1

