
OS:Version,
  {292013d1-f36d-40c0-846d-d1f8cabb5193}, ! Handle
  0.9.3;                                  ! Version Identifier

OS:SizingPeriod:DesignDay,
  {a6731745-42f7-47eb-9076-6c14b23d57c6}, ! Handle
  PITTSBURGH Ann Hum_n 99% Condns DP=>MCDB, ! Name
  -11.2,                                  ! Maximum Dry-Bulb Temperature {C}
  0,                                      ! Daily Dry-Bulb Temperature Range {deltaC}
  -18,                                    ! Humidity Indicating Conditions at Maximum Dry-Bulb {BasedOnField A3}
  96924,                                  ! Barometric Pressure {Pa}
  3.6,                                    ! Wind Speed {m/s}
  240,                                    ! Wind Direction {deg}
  0,                                      ! Sky Clearness
  0,                                      ! Rain Indicator
  0,                                      ! Snow Indicator
  21,                                     ! Day of Month
  1,                                      ! Month
  WinterDesignDay,                        ! Day Type
  0,                                      ! Daylight Saving Time Indicator
  Dewpoint,                               ! Humidity Indicating Type
  ,                                       ! Humidity Indicating Day Schedule Name
  DefaultMultipliers,                     ! Dry-Bulb Temperature Range Modifier Type
  ,                                       ! Dry-Bulb Temperature Range Modifier Schedule Name
  ASHRAEClearSky;                         ! Solar Model Indicator

OS:ComponentData,
  {295f49eb-7650-460f-bc28-03e2500e3036}, ! Handle
  Component Data 1,                       ! Name
  {3f8ede21-8a40-4e0e-813c-7895d28bb5bf}, ! UUID
  {195ff37c-57ee-4062-b8c4-bcc761e76c3b}, ! Version UUID
  1366310236,                             ! Creation Timestamp
  1366310236,                             ! Version Timestamp
  {a6731745-42f7-47eb-9076-6c14b23d57c6}; ! Name of Object 1

