
OS:Version,
  {ee9c8eff-05b1-487e-a3e2-5151a1a16c49}, ! Handle
  0.9.3;                                  ! Version Identifier

OS:SizingPeriod:DesignDay,
  {bb55cadf-0e71-4c15-907b-2bff5917c2fc}, ! Handle
  Massena Ann Htg 99% Condns DB,          ! Name
  -22.7,                                  ! Maximum Dry-Bulb Temperature {C}
  0,                                      ! Daily Dry-Bulb Temperature Range {deltaC}
  -22.7,                                  ! Humidity Indicating Conditions at Maximum Dry-Bulb {BasedOnField A3}
  100547,                                 ! Barometric Pressure {Pa}
  1.8,                                    ! Wind Speed {m/s}
  270,                                    ! Wind Direction {deg}
  0,                                      ! Sky Clearness
  0,                                      ! Rain Indicator
  0,                                      ! Snow Indicator
  21,                                     ! Day of Month
  1,                                      ! Month
  WinterDesignDay,                        ! Day Type
  0,                                      ! Daylight Saving Time Indicator
  Wetbulb,                                ! Humidity Indicating Type
  ,                                       ! Humidity Indicating Day Schedule Name
  DefaultMultipliers,                     ! Dry-Bulb Temperature Range Modifier Type
  ,                                       ! Dry-Bulb Temperature Range Modifier Schedule Name
  ASHRAEClearSky;                         ! Solar Model Indicator

OS:ComponentData,
  {db32b046-0ef0-4835-a6e4-caa2ea6ff5b0}, ! Handle
  Component Data 1,                       ! Name
  {23be9790-5ce4-41aa-994b-550203d2e1b4}, ! UUID
  {ec4e0308-6117-4e92-95b7-9a7293c4acc3}, ! Version UUID
  1366309649,                             ! Creation Timestamp
  1366309649,                             ! Version Timestamp
  {bb55cadf-0e71-4c15-907b-2bff5917c2fc}; ! Name of Object 1

