
OS:Version,
  {24187002-a107-40d7-a21a-096505d2e6c2}, ! Handle
  0.9.3;                                  ! Version Identifier

OS:SizingPeriod:DesignDay,
  {8c58f823-f346-46da-9d32-b4be3f59604e}, ! Handle
  Memphis Ann Htg Wind 99% Condns WS=>MCDB, ! Name
  7.7,                                    ! Maximum Dry-Bulb Temperature {C}
  0,                                      ! Daily Dry-Bulb Temperature Range {deltaC}
  7.7,                                    ! Humidity Indicating Conditions at Maximum Dry-Bulb {BasedOnField A3}
  100284,                                 ! Barometric Pressure {Pa}
  9.3,                                    ! Wind Speed {m/s}
  0,                                      ! Wind Direction {deg}
  0,                                      ! Sky Clearness
  0,                                      ! Rain Indicator
  0,                                      ! Snow Indicator
  21,                                     ! Day of Month
  1,                                      ! Month
  WinterDesignDay,                        ! Day Type
  0,                                      ! Daylight Saving Time Indicator
  Wetbulb,                                ! Humidity Indicating Type
  ,                                       ! Humidity Indicating Day Schedule Name
  DefaultMultipliers,                     ! Dry-Bulb Temperature Range Modifier Type
  ,                                       ! Dry-Bulb Temperature Range Modifier Schedule Name
  ASHRAEClearSky;                         ! Solar Model Indicator

OS:ComponentData,
  {c43fd9e2-4253-4641-807e-f35fb0d7b43e}, ! Handle
  Component Data 1,                       ! Name
  {89406c59-cde3-412e-af76-5b7916a0530a}, ! UUID
  {289d2499-cfe6-4974-9f09-a936040d4711}, ! Version UUID
  1366310524,                             ! Creation Timestamp
  1366310524,                             ! Version Timestamp
  {8c58f823-f346-46da-9d32-b4be3f59604e}; ! Name of Object 1

