
OS:Version,
  {a0e7ab10-af3f-4fd4-9ad8-117a92797cc1}, ! Handle
  0.9.3;                                  ! Version Identifier

OS:SizingPeriod:DesignDay,
  {0ec1e1c0-686f-4b97-a7ec-ad6c97a5fac2}, ! Handle
  Williston Sloulin Intl Ap Ann Clg 2% Condns WB=>MDB, ! Name
  27.9,                                   ! Maximum Dry-Bulb Temperature {C}
  14.5,                                   ! Daily Dry-Bulb Temperature Range {deltaC}
  19.7,                                   ! Humidity Indicating Conditions at Maximum Dry-Bulb {BasedOnField A3}
  94549,                                  ! Barometric Pressure {Pa}
  5.5,                                    ! Wind Speed {m/s}
  150,                                    ! Wind Direction {deg}
  0,                                      ! Sky Clearness
  0,                                      ! Rain Indicator
  0,                                      ! Snow Indicator
  21,                                     ! Day of Month
  7,                                      ! Month
  SummerDesignDay,                        ! Day Type
  0,                                      ! Daylight Saving Time Indicator
  Wetbulb,                                ! Humidity Indicating Type
  ,                                       ! Humidity Indicating Day Schedule Name
  DefaultMultipliers,                     ! Dry-Bulb Temperature Range Modifier Type
  ,                                       ! Dry-Bulb Temperature Range Modifier Schedule Name
  ASHRAETau,                              ! Solar Model Indicator
  ,                                       ! Beam Solar Day Schedule Name
  ,                                       ! Diffuse Solar Day Schedule Name
  0.388,                                  ! ASHRAE Taub {dimensionless}
  2.236;                                  ! ASHRAE Taud {dimensionless}

OS:ComponentData,
  {787b6e12-74a6-4e11-a71d-8731129386e1}, ! Handle
  Component Data 1,                       ! Name
  {2d6f8139-6e8c-421e-a9fa-3268162f604a}, ! UUID
  {6c151532-18ce-40d2-be00-22233fef43de}, ! Version UUID
  1366309073,                             ! Creation Timestamp
  1366309073,                             ! Version Timestamp
  {0ec1e1c0-686f-4b97-a7ec-ad6c97a5fac2}; ! Name of Object 1

