
OS:Version,
  {bde547e8-8098-4b0e-b1c6-1db2dda77bcf}, ! Handle
  0.9.3;                                  ! Version Identifier

OS:SizingPeriod:DesignDay,
  {46c52671-ae3b-4d93-a341-03d84e9e4708}, ! Handle
  New York J F Kennedy IntL Ar Ann Clg 1% Condns WB=>MDB, ! Name
  27.7,                                   ! Maximum Dry-Bulb Temperature {C}
  7.4,                                    ! Daily Dry-Bulb Temperature Range {deltaC}
  24.3,                                   ! Humidity Indicating Conditions at Maximum Dry-Bulb {BasedOnField A3}
  101265,                                 ! Barometric Pressure {Pa}
  5.6,                                    ! Wind Speed {m/s}
  230,                                    ! Wind Direction {deg}
  0,                                      ! Sky Clearness
  0,                                      ! Rain Indicator
  0,                                      ! Snow Indicator
  21,                                     ! Day of Month
  7,                                      ! Month
  SummerDesignDay,                        ! Day Type
  0,                                      ! Daylight Saving Time Indicator
  Wetbulb,                                ! Humidity Indicating Type
  ,                                       ! Humidity Indicating Day Schedule Name
  DefaultMultipliers,                     ! Dry-Bulb Temperature Range Modifier Type
  ,                                       ! Dry-Bulb Temperature Range Modifier Schedule Name
  ASHRAETau,                              ! Solar Model Indicator
  ,                                       ! Beam Solar Day Schedule Name
  ,                                       ! Diffuse Solar Day Schedule Name
  0.541,                                  ! ASHRAE Taub {dimensionless}
  1.8;                                    ! ASHRAE Taud {dimensionless}

OS:ComponentData,
  {18d7c98d-c69a-447c-9589-7215ef072c23}, ! Handle
  Component Data 1,                       ! Name
  {9915f73b-7270-4c27-abe3-53c19a7ba10e}, ! UUID
  {19ff3048-cc70-4644-89fa-632e4b76773a}, ! Version UUID
  1366309665,                             ! Creation Timestamp
  1366309665,                             ! Version Timestamp
  {46c52671-ae3b-4d93-a341-03d84e9e4708}; ! Name of Object 1

