
OS:Version,
  {c380ac7a-10e0-41a6-be15-80206321571c}, ! Handle
  0.9.3;                                  ! Version Identifier

OS:SizingPeriod:DesignDay,
  {aaf015fc-f1cc-4de7-b27d-f61e8623f270}, ! Handle
  PORT_ARTHUR Ann Hum_n 99.6% Condns DP=>MCDB, ! Name
  3.5,                                    ! Maximum Dry-Bulb Temperature {C}
  0,                                      ! Daily Dry-Bulb Temperature Range {deltaC}
  -8.4,                                   ! Humidity Indicating Conditions at Maximum Dry-Bulb {BasedOnField A3}
  101241,                                 ! Barometric Pressure {Pa}
  4.2,                                    ! Wind Speed {m/s}
  0,                                      ! Wind Direction {deg}
  0,                                      ! Sky Clearness
  0,                                      ! Rain Indicator
  0,                                      ! Snow Indicator
  21,                                     ! Day of Month
  1,                                      ! Month
  WinterDesignDay,                        ! Day Type
  0,                                      ! Daylight Saving Time Indicator
  Dewpoint,                               ! Humidity Indicating Type
  ,                                       ! Humidity Indicating Day Schedule Name
  DefaultMultipliers,                     ! Dry-Bulb Temperature Range Modifier Type
  ,                                       ! Dry-Bulb Temperature Range Modifier Schedule Name
  ASHRAEClearSky;                         ! Solar Model Indicator

OS:ComponentData,
  {97ed3b7b-229e-48e1-bad3-6641d3039477}, ! Handle
  Component Data 1,                       ! Name
  {16cc2ce0-4d2c-4d80-88b8-7521bff5ee3f}, ! UUID
  {b3a5cfc7-541d-4f81-851a-7132430b4729}, ! Version UUID
  1366310594,                             ! Creation Timestamp
  1366310594,                             ! Version Timestamp
  {aaf015fc-f1cc-4de7-b27d-f61e8623f270}; ! Name of Object 1

