
OS:Version,
  {b42fccd3-f0d3-4346-b479-e16c6dd7d790}, ! Handle
  0.9.3;                                  ! Version Identifier

OS:SizingPeriod:DesignDay,
  {7cf268ea-eb44-49e0-bced-a7e0c81c4f95}, ! Handle
  Macon Middle Ga Regional Ap Ann Hum_n 99.6% Condns DP=>MCDB, ! Name
  0.7,                                    ! Maximum Dry-Bulb Temperature {C}
  0,                                      ! Daily Dry-Bulb Temperature Range {deltaC}
  -13.8,                                  ! Humidity Indicating Conditions at Maximum Dry-Bulb {BasedOnField A3}
  100034,                                 ! Barometric Pressure {Pa}
  2.5,                                    ! Wind Speed {m/s}
  300,                                    ! Wind Direction {deg}
  0,                                      ! Sky Clearness
  0,                                      ! Rain Indicator
  0,                                      ! Snow Indicator
  21,                                     ! Day of Month
  1,                                      ! Month
  WinterDesignDay,                        ! Day Type
  0,                                      ! Daylight Saving Time Indicator
  Dewpoint,                               ! Humidity Indicating Type
  ,                                       ! Humidity Indicating Day Schedule Name
  DefaultMultipliers,                     ! Dry-Bulb Temperature Range Modifier Type
  ,                                       ! Dry-Bulb Temperature Range Modifier Schedule Name
  ASHRAEClearSky;                         ! Solar Model Indicator

OS:ComponentData,
  {20d1c01a-8de2-4527-a48c-3f475a9555e5}, ! Handle
  Component Data 1,                       ! Name
  {055b8129-514e-46b6-b803-4f0fe029fcc8}, ! UUID
  {b616e8cd-c4a7-4d16-996b-1bfee3e6f278}, ! Version UUID
  1366307023,                             ! Creation Timestamp
  1366307023,                             ! Version Timestamp
  {7cf268ea-eb44-49e0-bced-a7e0c81c4f95}; ! Name of Object 1

