
OS:Version,
  {0e14d4e7-a57a-47fc-b3ae-3422874acdbc}, ! Handle
  0.9.3;                                  ! Version Identifier

OS:SizingPeriod:DesignDay,
  {768a2940-7d5a-404f-993a-916a28142511}, ! Handle
  Port Heiden Ann Htg Wind 99% Condns WS=>MCDB, ! Name
  3.9,                                    ! Maximum Dry-Bulb Temperature {C}
  0,                                      ! Daily Dry-Bulb Temperature Range {deltaC}
  3.9,                                    ! Humidity Indicating Conditions at Maximum Dry-Bulb {BasedOnField A3}
  100977,                                 ! Barometric Pressure {Pa}
  17.6,                                   ! Wind Speed {m/s}
  40,                                     ! Wind Direction {deg}
  0,                                      ! Sky Clearness
  0,                                      ! Rain Indicator
  0,                                      ! Snow Indicator
  21,                                     ! Day of Month
  2,                                      ! Month
  WinterDesignDay,                        ! Day Type
  0,                                      ! Daylight Saving Time Indicator
  Wetbulb,                                ! Humidity Indicating Type
  ,                                       ! Humidity Indicating Day Schedule Name
  DefaultMultipliers,                     ! Dry-Bulb Temperature Range Modifier Type
  ,                                       ! Dry-Bulb Temperature Range Modifier Schedule Name
  ASHRAEClearSky;                         ! Solar Model Indicator

OS:ComponentData,
  {2c850517-417f-407d-b79c-06292bafd36e}, ! Handle
  Component Data 1,                       ! Name
  {e3c5f959-409c-4434-9343-7d6683fcc2f5}, ! UUID
  {5645740c-b9d2-42e9-a75d-006b4b87f5e7}, ! Version UUID
  1366305498,                             ! Creation Timestamp
  1366305498,                             ! Version Timestamp
  {768a2940-7d5a-404f-993a-916a28142511}; ! Name of Object 1

