
OS:Version,
  {e58f6c76-f2a4-4ce1-b8dc-9bf7910489ad}, ! Handle
  0.9.3;                                  ! Version Identifier

OS:SizingPeriod:DesignDay,
  {cfa156f3-9c94-4cac-921c-cf0c90474d93}, ! Handle
  Moody Afb Valdosta Ann Htg 99% Condns DB, ! Name
  0.9,                                    ! Maximum Dry-Bulb Temperature {C}
  0,                                      ! Daily Dry-Bulb Temperature Range {deltaC}
  0.9,                                    ! Humidity Indicating Conditions at Maximum Dry-Bulb {BasedOnField A3}
  100475,                                 ! Barometric Pressure {Pa}
  2,                                      ! Wind Speed {m/s}
  0,                                      ! Wind Direction {deg}
  0,                                      ! Sky Clearness
  0,                                      ! Rain Indicator
  0,                                      ! Snow Indicator
  21,                                     ! Day of Month
  1,                                      ! Month
  WinterDesignDay,                        ! Day Type
  0,                                      ! Daylight Saving Time Indicator
  Wetbulb,                                ! Humidity Indicating Type
  ,                                       ! Humidity Indicating Day Schedule Name
  DefaultMultipliers,                     ! Dry-Bulb Temperature Range Modifier Type
  ,                                       ! Dry-Bulb Temperature Range Modifier Schedule Name
  ASHRAEClearSky;                         ! Solar Model Indicator

OS:ComponentData,
  {58f190d5-a6cf-4778-bd48-302007f1a3c0}, ! Handle
  Component Data 1,                       ! Name
  {e09ef86a-85af-48d6-90a3-5b37339a5152}, ! UUID
  {8b690778-c16d-4c6a-9edd-bae7c6b6f50a}, ! Version UUID
  1366307059,                             ! Creation Timestamp
  1366307059,                             ! Version Timestamp
  {cfa156f3-9c94-4cac-921c-cf0c90474d93}; ! Name of Object 1

