
OS:Version,
  {1eff3cb1-f42f-4bdc-8b83-22b1038dd758}, ! Handle
  0.9.3;                                  ! Version Identifier

OS:SizingPeriod:DesignDay,
  {95937b9e-930a-406e-b12d-4a9d7cec6421}, ! Handle
  Mcgrath Arpt Ann Clg .4% Condns WB=>MDB, ! Name
  23.2,                                   ! Maximum Dry-Bulb Temperature {C}
  9.7,                                    ! Daily Dry-Bulb Temperature Range {deltaC}
  16.9,                                   ! Humidity Indicating Conditions at Maximum Dry-Bulb {BasedOnField A3}
  100070,                                 ! Barometric Pressure {Pa}
  3.2,                                    ! Wind Speed {m/s}
  0,                                      ! Wind Direction {deg}
  0,                                      ! Sky Clearness
  0,                                      ! Rain Indicator
  0,                                      ! Snow Indicator
  21,                                     ! Day of Month
  7,                                      ! Month
  SummerDesignDay,                        ! Day Type
  0,                                      ! Daylight Saving Time Indicator
  Wetbulb,                                ! Humidity Indicating Type
  ,                                       ! Humidity Indicating Day Schedule Name
  DefaultMultipliers,                     ! Dry-Bulb Temperature Range Modifier Type
  ,                                       ! Dry-Bulb Temperature Range Modifier Schedule Name
  ASHRAETau,                              ! Solar Model Indicator
  ,                                       ! Beam Solar Day Schedule Name
  ,                                       ! Diffuse Solar Day Schedule Name
  0.388,                                  ! ASHRAE Taub {dimensionless}
  2.208;                                  ! ASHRAE Taud {dimensionless}

OS:ComponentData,
  {c7d08648-49d8-485d-b1d6-b803f2c1ef8b}, ! Handle
  Component Data 1,                       ! Name
  {11164be7-72ed-41c6-a61d-aafff4a4914a}, ! UUID
  {c714b550-1896-45f7-b4f8-30c82f5e1cf7}, ! Version UUID
  1366305417,                             ! Creation Timestamp
  1366305417,                             ! Version Timestamp
  {95937b9e-930a-406e-b12d-4a9d7cec6421}; ! Name of Object 1

