
OS:Version,
  {bb273a31-a634-432f-9e4c-912d4fbb7097}, ! Handle
  0.9.3;                                  ! Version Identifier

OS:SizingPeriod:DesignDay,
  {9eb69fe3-7492-4d12-a0fe-bc1d3ea3bfa9}, ! Handle
  MOBILE Ann Clg .4% Condns WB=>MDB,      ! Name
  31.3,                                   ! Maximum Dry-Bulb Temperature {C}
  9.4,                                    ! Daily Dry-Bulb Temperature Range {deltaC}
  26.7,                                   ! Humidity Indicating Conditions at Maximum Dry-Bulb {BasedOnField A3}
  100523,                                 ! Barometric Pressure {Pa}
  3.5,                                    ! Wind Speed {m/s}
  350,                                    ! Wind Direction {deg}
  0,                                      ! Sky Clearness
  0,                                      ! Rain Indicator
  0,                                      ! Snow Indicator
  21,                                     ! Day of Month
  7,                                      ! Month
  SummerDesignDay,                        ! Day Type
  0,                                      ! Daylight Saving Time Indicator
  Wetbulb,                                ! Humidity Indicating Type
  ,                                       ! Humidity Indicating Day Schedule Name
  DefaultMultipliers,                     ! Dry-Bulb Temperature Range Modifier Type
  ,                                       ! Dry-Bulb Temperature Range Modifier Schedule Name
  ASHRAETau,                              ! Solar Model Indicator
  ,                                       ! Beam Solar Day Schedule Name
  ,                                       ! Diffuse Solar Day Schedule Name
  0.538,                                  ! ASHRAE Taub {dimensionless}
  1.867;                                  ! ASHRAE Taud {dimensionless}

OS:ComponentData,
  {4b95bb97-23c6-45ba-8531-5c2dff5a6f4c}, ! Handle
  Component Data 1,                       ! Name
  {bbe07bc8-7d76-4c8c-be86-0bab3f3974f0}, ! UUID
  {dfdddc7f-57ea-464e-a36c-4675e32cac86}, ! Version UUID
  1366305838,                             ! Creation Timestamp
  1366305838,                             ! Version Timestamp
  {9eb69fe3-7492-4d12-a0fe-bc1d3ea3bfa9}; ! Name of Object 1

