
OS:Version,
  {02ef5603-9fe1-4cde-ab3b-092f823e8629}, ! Handle
  0.9.3;                                  ! Version Identifier

OS:SizingPeriod:DesignDay,
  {a376e833-208c-459e-ac58-483a808e332c}, ! Handle
  Pendleton E Or Regional Ap Ann Clg 1% Condns WB=>MDB, ! Name
  31.7,                                   ! Maximum Dry-Bulb Temperature {C}
  15.8,                                   ! Daily Dry-Bulb Temperature Range {deltaC}
  18.4,                                   ! Humidity Indicating Conditions at Maximum Dry-Bulb {BasedOnField A3}
  96012,                                  ! Barometric Pressure {Pa}
  4.1,                                    ! Wind Speed {m/s}
  300,                                    ! Wind Direction {deg}
  0,                                      ! Sky Clearness
  0,                                      ! Rain Indicator
  0,                                      ! Snow Indicator
  21,                                     ! Day of Month
  7,                                      ! Month
  SummerDesignDay,                        ! Day Type
  0,                                      ! Daylight Saving Time Indicator
  Wetbulb,                                ! Humidity Indicating Type
  ,                                       ! Humidity Indicating Day Schedule Name
  DefaultMultipliers,                     ! Dry-Bulb Temperature Range Modifier Type
  ,                                       ! Dry-Bulb Temperature Range Modifier Schedule Name
  ASHRAETau,                              ! Solar Model Indicator
  ,                                       ! Beam Solar Day Schedule Name
  ,                                       ! Diffuse Solar Day Schedule Name
  0.384,                                  ! ASHRAE Taub {dimensionless}
  2.273;                                  ! ASHRAE Taud {dimensionless}

OS:ComponentData,
  {3a9a49bb-5df8-4326-8b73-843cf060b455}, ! Handle
  Component Data 1,                       ! Name
  {fd1b15e8-11e3-4424-bc3c-aef863737701}, ! UUID
  {e620f9f4-6909-4929-9be6-661466495758}, ! Version UUID
  1366310059,                             ! Creation Timestamp
  1366310059,                             ! Version Timestamp
  {a376e833-208c-459e-ac58-483a808e332c}; ! Name of Object 1

