
OS:Version,
  {c76ad912-a604-44b0-8422-8e1a0e82320c}, ! Handle
  0.9.3;                                  ! Version Identifier

OS:SizingPeriod:DesignDay,
  {61912303-7e55-4b76-8445-fc2a66815521}, ! Handle
  North Platte Ann Htg 99.6% Condns DB,   ! Name
  -22.1,                                  ! Maximum Dry-Bulb Temperature {C}
  0,                                      ! Daily Dry-Bulb Temperature Range {deltaC}
  -22.1,                                  ! Humidity Indicating Conditions at Maximum Dry-Bulb {BasedOnField A3}
  91533,                                  ! Barometric Pressure {Pa}
  3.6,                                    ! Wind Speed {m/s}
  320,                                    ! Wind Direction {deg}
  0,                                      ! Sky Clearness
  0,                                      ! Rain Indicator
  0,                                      ! Snow Indicator
  21,                                     ! Day of Month
  1,                                      ! Month
  WinterDesignDay,                        ! Day Type
  0,                                      ! Daylight Saving Time Indicator
  Wetbulb,                                ! Humidity Indicating Type
  ,                                       ! Humidity Indicating Day Schedule Name
  DefaultMultipliers,                     ! Dry-Bulb Temperature Range Modifier Type
  ,                                       ! Dry-Bulb Temperature Range Modifier Schedule Name
  ASHRAEClearSky;                         ! Solar Model Indicator

OS:ComponentData,
  {d73da60f-3ecc-4f2a-9b05-2d3dfc4fedc9}, ! Handle
  Component Data 1,                       ! Name
  {865e26b3-8253-4bb5-a51f-36c46312da92}, ! UUID
  {6f9ca410-f380-4d91-adf2-e9b10e1b35e4}, ! Version UUID
  1366309160,                             ! Creation Timestamp
  1366309160,                             ! Version Timestamp
  {61912303-7e55-4b76-8445-fc2a66815521}; ! Name of Object 1

