
OS:Version,
  {9558b95f-1df8-41bc-9078-72f28b74ca26}, ! Handle
  0.9.3;                                  ! Version Identifier

OS:SizingPeriod:DesignDay,
  {e2a2b245-628d-4523-a869-fe517947175b}, ! Handle
  Spokane/Fairchild AFB Ann Clg .4% Condns DB=>MWB, ! Name
  33.8,                                   ! Maximum Dry-Bulb Temperature {C}
  14.6,                                   ! Daily Dry-Bulb Temperature Range {deltaC}
  17.2,                                   ! Humidity Indicating Conditions at Maximum Dry-Bulb {BasedOnField A3}
  92634,                                  ! Barometric Pressure {Pa}
  4.1,                                    ! Wind Speed {m/s}
  240,                                    ! Wind Direction {deg}
  0,                                      ! Sky Clearness
  0,                                      ! Rain Indicator
  0,                                      ! Snow Indicator
  21,                                     ! Day of Month
  7,                                      ! Month
  SummerDesignDay,                        ! Day Type
  0,                                      ! Daylight Saving Time Indicator
  Wetbulb,                                ! Humidity Indicating Type
  ,                                       ! Humidity Indicating Day Schedule Name
  DefaultMultipliers,                     ! Dry-Bulb Temperature Range Modifier Type
  ,                                       ! Dry-Bulb Temperature Range Modifier Schedule Name
  ASHRAETau,                              ! Solar Model Indicator
  ,                                       ! Beam Solar Day Schedule Name
  ,                                       ! Diffuse Solar Day Schedule Name
  0.354,                                  ! ASHRAE Taub {dimensionless}
  2.385;                                  ! ASHRAE Taud {dimensionless}

OS:ComponentData,
  {2dd9f251-a063-4d20-bd07-8968d17b7b01}, ! Handle
  Component Data 1,                       ! Name
  {c9f1c60f-ac4d-46f3-9b06-137e61c233bb}, ! UUID
  {caa928d3-09fc-47bf-88d4-ccc3ed686984}, ! Version UUID
  1366311389,                             ! Creation Timestamp
  1366311389,                             ! Version Timestamp
  {e2a2b245-628d-4523-a869-fe517947175b}; ! Name of Object 1

