
OS:Version,
  {ef7d4216-572a-4ea5-b750-4cf0ab884167}, ! Handle
  0.9.3;                                  ! Version Identifier

OS:SizingPeriod:DesignDay,
  {7d06beec-2d64-4280-9ae0-949b01ee8fd0}, ! Handle
  Ogden Hill Afb Ann Clg 1% Condns Enth=>MDB, ! Name
  28.4,                                   ! Maximum Dry-Bulb Temperature {C}
  12.8,                                   ! Daily Dry-Bulb Temperature Range {deltaC}
  54900,                                  ! Humidity Indicating Conditions at Maximum Dry-Bulb {BasedOnField A3}
  84982,                                  ! Barometric Pressure {Pa}
  2.9,                                    ! Wind Speed {m/s}
  330,                                    ! Wind Direction {deg}
  0,                                      ! Sky Clearness
  0,                                      ! Rain Indicator
  0,                                      ! Snow Indicator
  21,                                     ! Day of Month
  7,                                      ! Month
  SummerDesignDay,                        ! Day Type
  0,                                      ! Daylight Saving Time Indicator
  Enthalpy,                               ! Humidity Indicating Type
  ,                                       ! Humidity Indicating Day Schedule Name
  DefaultMultipliers,                     ! Dry-Bulb Temperature Range Modifier Type
  ,                                       ! Dry-Bulb Temperature Range Modifier Schedule Name
  ASHRAETau,                              ! Solar Model Indicator
  ,                                       ! Beam Solar Day Schedule Name
  ,                                       ! Diffuse Solar Day Schedule Name
  0.419,                                  ! ASHRAE Taub {dimensionless}
  2.015;                                  ! ASHRAE Taud {dimensionless}

OS:ComponentData,
  {ce7a7673-ecf4-4c69-96f3-2c006e013dc2}, ! Handle
  Component Data 1,                       ! Name
  {b6765490-bfdb-4ebf-81a0-216752428bd9}, ! UUID
  {0978cf2f-52e8-467a-a426-01e0b2e135ef}, ! Version UUID
  1366310972,                             ! Creation Timestamp
  1366310972,                             ! Version Timestamp
  {7d06beec-2d64-4280-9ae0-949b01ee8fd0}; ! Name of Object 1

