
OS:Version,
  {9ddc2f68-50f6-43ec-96a8-bb16663e9065}, ! Handle
  0.9.3;                                  ! Version Identifier

OS:SizingPeriod:DesignDay,
  {51d1a4aa-1484-4d5a-a408-1668ce21d218}, ! Handle
  Winnemucca Municipal Arpt Ann Clg 2% Condns DP=>MDB, ! Name
  21.9,                                   ! Maximum Dry-Bulb Temperature {C}
  21.5,                                   ! Daily Dry-Bulb Temperature Range {deltaC}
  9.8,                                    ! Humidity Indicating Conditions at Maximum Dry-Bulb {BasedOnField A3}
  86546,                                  ! Barometric Pressure {Pa}
  4.4,                                    ! Wind Speed {m/s}
  240,                                    ! Wind Direction {deg}
  0,                                      ! Sky Clearness
  0,                                      ! Rain Indicator
  0,                                      ! Snow Indicator
  21,                                     ! Day of Month
  7,                                      ! Month
  SummerDesignDay,                        ! Day Type
  0,                                      ! Daylight Saving Time Indicator
  Dewpoint,                               ! Humidity Indicating Type
  ,                                       ! Humidity Indicating Day Schedule Name
  DefaultMultipliers,                     ! Dry-Bulb Temperature Range Modifier Type
  ,                                       ! Dry-Bulb Temperature Range Modifier Schedule Name
  ASHRAETau,                              ! Solar Model Indicator
  ,                                       ! Beam Solar Day Schedule Name
  ,                                       ! Diffuse Solar Day Schedule Name
  0.441,                                  ! ASHRAE Taub {dimensionless}
  1.893;                                  ! ASHRAE Taud {dimensionless}

