
OS:Version,
  {deee9f54-b972-4b07-8281-dbe37e816237}, ! Handle
  0.9.3;                                  ! Version Identifier

OS:SizingPeriod:DesignDay,
  {9d095d59-5ad2-42d9-bcf5-04446dae79ef}, ! Handle
  Palm Springs Intl Ann Hum_n 99% Condns DP=>MCDB, ! Name
  14.7,                                   ! Maximum Dry-Bulb Temperature {C}
  0,                                      ! Daily Dry-Bulb Temperature Range {deltaC}
  -12.9,                                  ! Humidity Indicating Conditions at Maximum Dry-Bulb {BasedOnField A3}
  99595,                                  ! Barometric Pressure {Pa}
  2,                                      ! Wind Speed {m/s}
  330,                                    ! Wind Direction {deg}
  0,                                      ! Sky Clearness
  0,                                      ! Rain Indicator
  0,                                      ! Snow Indicator
  21,                                     ! Day of Month
  12,                                     ! Month
  WinterDesignDay,                        ! Day Type
  0,                                      ! Daylight Saving Time Indicator
  Dewpoint,                               ! Humidity Indicating Type
  ,                                       ! Humidity Indicating Day Schedule Name
  DefaultMultipliers,                     ! Dry-Bulb Temperature Range Modifier Type
  ,                                       ! Dry-Bulb Temperature Range Modifier Schedule Name
  ASHRAEClearSky;                         ! Solar Model Indicator

OS:ComponentData,
  {9c9802e4-207d-4eb4-b869-0b36cf4bd31e}, ! Handle
  Component Data 1,                       ! Name
  {8ebcdba8-65a5-4e0d-8296-4d9aecbd87ca}, ! UUID
  {e23c4dfa-240d-43cf-9250-3849df7f5377}, ! Version UUID
  1366306530,                             ! Creation Timestamp
  1366306530,                             ! Version Timestamp
  {9d095d59-5ad2-42d9-bcf5-04446dae79ef}; ! Name of Object 1

