
OS:Version,
  {6fe4c0ca-36de-4d26-a573-70bfa003390b}, ! Handle
  0.9.3;                                  ! Version Identifier

OS:SizingPeriod:DesignDay,
  {be9cd5fb-2fce-4bf2-9678-00bf0a860131}, ! Handle
  Point Mugu Nf Ann Clg .4% Condns Enth=>MDB, ! Name
  24,                                     ! Maximum Dry-Bulb Temperature {C}
  7.8,                                    ! Daily Dry-Bulb Temperature Range {deltaC}
  61400,                                  ! Humidity Indicating Conditions at Maximum Dry-Bulb {BasedOnField A3}
  101289,                                 ! Barometric Pressure {Pa}
  5.2,                                    ! Wind Speed {m/s}
  50,                                     ! Wind Direction {deg}
  0,                                      ! Sky Clearness
  0,                                      ! Rain Indicator
  0,                                      ! Snow Indicator
  21,                                     ! Day of Month
  8,                                      ! Month
  SummerDesignDay,                        ! Day Type
  0,                                      ! Daylight Saving Time Indicator
  Enthalpy,                               ! Humidity Indicating Type
  ,                                       ! Humidity Indicating Day Schedule Name
  DefaultMultipliers,                     ! Dry-Bulb Temperature Range Modifier Type
  ,                                       ! Dry-Bulb Temperature Range Modifier Schedule Name
  ASHRAETau,                              ! Solar Model Indicator
  ,                                       ! Beam Solar Day Schedule Name
  ,                                       ! Diffuse Solar Day Schedule Name
  0.425,                                  ! ASHRAE Taub {dimensionless}
  2.2;                                    ! ASHRAE Taud {dimensionless}

OS:ComponentData,
  {9c85e51c-e26c-408e-93fb-709e047c89a7}, ! Handle
  Component Data 1,                       ! Name
  {3da82545-3920-441f-a6f5-9a7647e4f928}, ! UUID
  {a74b2ad0-ad9a-4983-8bc8-d978bc819556}, ! Version UUID
  1366306539,                             ! Creation Timestamp
  1366306539,                             ! Version Timestamp
  {be9cd5fb-2fce-4bf2-9678-00bf0a860131}; ! Name of Object 1

