
OS:Version,
  {0df8c8a0-35c5-4989-91aa-4a67ef61b8c3}, ! Handle
  0.9.3;                                  ! Version Identifier

OS:SizingPeriod:DesignDay,
  {4b889e45-eb4f-4011-a686-60501fc304e0}, ! Handle
  VICTORIA Ann Clg 1% Condns WB=>MDB,     ! Name
  30.7,                                   ! Maximum Dry-Bulb Temperature {C}
  10.6,                                   ! Daily Dry-Bulb Temperature Range {deltaC}
  26.4,                                   ! Humidity Indicating Conditions at Maximum Dry-Bulb {BasedOnField A3}
  100941,                                 ! Barometric Pressure {Pa}
  4.9,                                    ! Wind Speed {m/s}
  170,                                    ! Wind Direction {deg}
  0,                                      ! Sky Clearness
  0,                                      ! Rain Indicator
  0,                                      ! Snow Indicator
  21,                                     ! Day of Month
  8,                                      ! Month
  SummerDesignDay,                        ! Day Type
  0,                                      ! Daylight Saving Time Indicator
  Wetbulb,                                ! Humidity Indicating Type
  ,                                       ! Humidity Indicating Day Schedule Name
  DefaultMultipliers,                     ! Dry-Bulb Temperature Range Modifier Type
  ,                                       ! Dry-Bulb Temperature Range Modifier Schedule Name
  ASHRAETau,                              ! Solar Model Indicator
  ,                                       ! Beam Solar Day Schedule Name
  ,                                       ! Diffuse Solar Day Schedule Name
  0.474,                                  ! ASHRAE Taub {dimensionless}
  2.062;                                  ! ASHRAE Taud {dimensionless}

OS:ComponentData,
  {ffafb13b-6991-4763-b89d-7e0ddad477a2}, ! Handle
  Component Data 1,                       ! Name
  {9ba30f7d-8b03-4941-8461-ca3101a9b85f}, ! UUID
  {bbcf3427-e435-4678-bfe8-b2d8ba5282a7}, ! Version UUID
  1366310909,                             ! Creation Timestamp
  1366310909,                             ! Version Timestamp
  {4b889e45-eb4f-4011-a686-60501fc304e0}; ! Name of Object 1

