
OS:Version,
  {3de99a78-f8ea-4559-8182-88992013c5e9}, ! Handle
  0.9.3;                                  ! Version Identifier

OS:SizingPeriod:DesignDay,
  {6e1a0d6a-9871-44ac-9bbd-844442a1bc3c}, ! Handle
  Tyndall Afb Ann Hum_n 99% Condns DP=>MCDB, ! Name
  5.2,                                    ! Maximum Dry-Bulb Temperature {C}
  0,                                      ! Daily Dry-Bulb Temperature Range {deltaC}
  -7.1,                                   ! Humidity Indicating Conditions at Maximum Dry-Bulb {BasedOnField A3}
  101241,                                 ! Barometric Pressure {Pa}
  4,                                      ! Wind Speed {m/s}
  0,                                      ! Wind Direction {deg}
  0,                                      ! Sky Clearness
  0,                                      ! Rain Indicator
  0,                                      ! Snow Indicator
  21,                                     ! Day of Month
  1,                                      ! Month
  WinterDesignDay,                        ! Day Type
  0,                                      ! Daylight Saving Time Indicator
  Dewpoint,                               ! Humidity Indicating Type
  ,                                       ! Humidity Indicating Day Schedule Name
  DefaultMultipliers,                     ! Dry-Bulb Temperature Range Modifier Type
  ,                                       ! Dry-Bulb Temperature Range Modifier Schedule Name
  ASHRAEClearSky;                         ! Solar Model Indicator

OS:ComponentData,
  {55ea20ea-aad7-439c-9c6c-58c0bc5c7c48}, ! Handle
  Component Data 1,                       ! Name
  {d487951d-0bc4-4f68-b4d9-5ccb6da08423}, ! UUID
  {6ade47b1-2281-4a8a-9a94-2f90c61acfbe}, ! Version UUID
  1366306939,                             ! Creation Timestamp
  1366306939,                             ! Version Timestamp
  {6e1a0d6a-9871-44ac-9bbd-844442a1bc3c}; ! Name of Object 1

