
OS:Version,
  {655c1f04-d612-4cd0-b901-6002289a80d6}, ! Handle
  0.9.3;                                  ! Version Identifier

OS:SizingPeriod:DesignDay,
  {28b6019c-46b0-403c-a924-aa2ef7c9e551}, ! Handle
  WICHITA Ann Clg 1% Condns DB=>MWB,      ! Name
  36.2,                                   ! Maximum Dry-Bulb Temperature {C}
  12.1,                                   ! Daily Dry-Bulb Temperature Range {deltaC}
  23,                                     ! Humidity Indicating Conditions at Maximum Dry-Bulb {BasedOnField A3}
  96519,                                  ! Barometric Pressure {Pa}
  7.1,                                    ! Wind Speed {m/s}
  190,                                    ! Wind Direction {deg}
  0,                                      ! Sky Clearness
  0,                                      ! Rain Indicator
  0,                                      ! Snow Indicator
  21,                                     ! Day of Month
  7,                                      ! Month
  SummerDesignDay,                        ! Day Type
  0,                                      ! Daylight Saving Time Indicator
  Wetbulb,                                ! Humidity Indicating Type
  ,                                       ! Humidity Indicating Day Schedule Name
  DefaultMultipliers,                     ! Dry-Bulb Temperature Range Modifier Type
  ,                                       ! Dry-Bulb Temperature Range Modifier Schedule Name
  ASHRAETau,                              ! Solar Model Indicator
  ,                                       ! Beam Solar Day Schedule Name
  ,                                       ! Diffuse Solar Day Schedule Name
  0.419,                                  ! ASHRAE Taub {dimensionless}
  2.207;                                  ! ASHRAE Taud {dimensionless}

OS:ComponentData,
  {ea1b5e5f-06b4-4873-9e16-1ae139e16f76}, ! Handle
  Component Data 1,                       ! Name
  {47325577-a1e3-48af-8504-fe4e9190b68e}, ! UUID
  {ffc0eef9-cabe-4482-a65f-1ac677a3334d}, ! Version UUID
  1366307607,                             ! Creation Timestamp
  1366307607,                             ! Version Timestamp
  {28b6019c-46b0-403c-a924-aa2ef7c9e551}; ! Name of Object 1

