
OS:Version,
  {7a295417-c9b0-4fc2-b9f8-2c1e65a6a5e0}, ! Handle
  0.9.3;                                  ! Version Identifier

OS:SizingPeriod:DesignDay,
  {5053a8d4-b262-4031-9977-dd4e2751dc57}, ! Handle
  Mcgrath Arpt Ann Clg 2% Condns DB=>MWB, ! Name
  21.9,                                   ! Maximum Dry-Bulb Temperature {C}
  9.7,                                    ! Daily Dry-Bulb Temperature Range {deltaC}
  14.2,                                   ! Humidity Indicating Conditions at Maximum Dry-Bulb {BasedOnField A3}
  100070,                                 ! Barometric Pressure {Pa}
  3.2,                                    ! Wind Speed {m/s}
  0,                                      ! Wind Direction {deg}
  0,                                      ! Sky Clearness
  0,                                      ! Rain Indicator
  0,                                      ! Snow Indicator
  21,                                     ! Day of Month
  7,                                      ! Month
  SummerDesignDay,                        ! Day Type
  0,                                      ! Daylight Saving Time Indicator
  Wetbulb,                                ! Humidity Indicating Type
  ,                                       ! Humidity Indicating Day Schedule Name
  DefaultMultipliers,                     ! Dry-Bulb Temperature Range Modifier Type
  ,                                       ! Dry-Bulb Temperature Range Modifier Schedule Name
  ASHRAETau,                              ! Solar Model Indicator
  ,                                       ! Beam Solar Day Schedule Name
  ,                                       ! Diffuse Solar Day Schedule Name
  0.388,                                  ! ASHRAE Taub {dimensionless}
  2.208;                                  ! ASHRAE Taud {dimensionless}

OS:ComponentData,
  {9cb48b1d-e117-40e8-a140-2148949fee0a}, ! Handle
  Component Data 1,                       ! Name
  {24e1bc35-5e6a-447d-a2f9-f894080d9f62}, ! UUID
  {af174ff7-d5d5-485c-86f9-ce27dc8d19c7}, ! Version UUID
  1366305417,                             ! Creation Timestamp
  1366305417,                             ! Version Timestamp
  {5053a8d4-b262-4031-9977-dd4e2751dc57}; ! Name of Object 1

