
OS:Version,
  {bece4144-4ac0-4a7c-b5c9-24403de12503}, ! Handle
  0.9.3;                                  ! Version Identifier

OS:SizingPeriod:DesignDay,
  {0a525662-3560-409d-98bb-f0ede9e8551b}, ! Handle
  Milwaukee Ann Hum_n 99.6% Condns DP=>MCDB, ! Name
  -18.9,                                  ! Maximum Dry-Bulb Temperature {C}
  0,                                      ! Daily Dry-Bulb Temperature Range {deltaC}
  -26.1,                                  ! Humidity Indicating Conditions at Maximum Dry-Bulb {BasedOnField A3}
  98816,                                  ! Barometric Pressure {Pa}
  5.7,                                    ! Wind Speed {m/s}
  300,                                    ! Wind Direction {deg}
  0,                                      ! Sky Clearness
  0,                                      ! Rain Indicator
  0,                                      ! Snow Indicator
  21,                                     ! Day of Month
  1,                                      ! Month
  WinterDesignDay,                        ! Day Type
  0,                                      ! Daylight Saving Time Indicator
  Dewpoint,                               ! Humidity Indicating Type
  ,                                       ! Humidity Indicating Day Schedule Name
  DefaultMultipliers,                     ! Dry-Bulb Temperature Range Modifier Type
  ,                                       ! Dry-Bulb Temperature Range Modifier Schedule Name
  ASHRAEClearSky;                         ! Solar Model Indicator

OS:ComponentData,
  {f7940d27-04fd-4bfd-a26f-63e07e43d930}, ! Handle
  Component Data 1,                       ! Name
  {bab739b2-6956-49e5-af6c-13b531c19ed9}, ! UUID
  {d1ca4481-c6ff-4d9a-869b-72dc464172f9}, ! Version UUID
  1366311551,                             ! Creation Timestamp
  1366311551,                             ! Version Timestamp
  {0a525662-3560-409d-98bb-f0ede9e8551b}; ! Name of Object 1

