
OS:Version,
  {2877729e-52f3-420a-b052-986f86511458}, ! Handle
  0.9.3;                                  ! Version Identifier

OS:SizingPeriod:DesignDay,
  {ff43c86b-a1ed-4879-a592-05c5686ca6b7}, ! Handle
  Mobile Ann Clg 1% Condns WB=>MDB,       ! Name
  30.6,                                   ! Maximum Dry-Bulb Temperature {C}
  9.4,                                    ! Daily Dry-Bulb Temperature Range {deltaC}
  26.1,                                   ! Humidity Indicating Conditions at Maximum Dry-Bulb {BasedOnField A3}
  100523,                                 ! Barometric Pressure {Pa}
  3.5,                                    ! Wind Speed {m/s}
  350,                                    ! Wind Direction {deg}
  0,                                      ! Sky Clearness
  0,                                      ! Rain Indicator
  0,                                      ! Snow Indicator
  21,                                     ! Day of Month
  7,                                      ! Month
  SummerDesignDay,                        ! Day Type
  0,                                      ! Daylight Saving Time Indicator
  Wetbulb,                                ! Humidity Indicating Type
  ,                                       ! Humidity Indicating Day Schedule Name
  DefaultMultipliers,                     ! Dry-Bulb Temperature Range Modifier Type
  ,                                       ! Dry-Bulb Temperature Range Modifier Schedule Name
  ASHRAETau,                              ! Solar Model Indicator
  ,                                       ! Beam Solar Day Schedule Name
  ,                                       ! Diffuse Solar Day Schedule Name
  0.538,                                  ! ASHRAE Taub {dimensionless}
  1.867;                                  ! ASHRAE Taud {dimensionless}

OS:ComponentData,
  {9c4172e7-076a-4a25-be5c-d4df4dd86800}, ! Handle
  Component Data 1,                       ! Name
  {a0d25fc9-2911-470f-8fcc-44b944eebdd8}, ! UUID
  {ed0164fc-eb31-4ab8-a612-034ce5ea0ecc}, ! Version UUID
  1366305740,                             ! Creation Timestamp
  1366305740,                             ! Version Timestamp
  {ff43c86b-a1ed-4879-a592-05c5686ca6b7}; ! Name of Object 1

