
OS:Version,
  {c5a2e7f8-788c-4857-af63-e501f93d79e1}, ! Handle
  0.9.3;                                  ! Version Identifier

OS:SizingPeriod:DesignDay,
  {aa8155f0-19a0-4015-9b78-d9b3e6dfd948}, ! Handle
  SEATTLE Ann Hum_n 99.6% Condns DP=>MCDB, ! Name
  -0.4,                                   ! Maximum Dry-Bulb Temperature {C}
  0,                                      ! Daily Dry-Bulb Temperature Range {deltaC}
  -13,                                    ! Humidity Indicating Conditions at Maximum Dry-Bulb {BasedOnField A3}
  99868,                                  ! Barometric Pressure {Pa}
  4.3,                                    ! Wind Speed {m/s}
  20,                                     ! Wind Direction {deg}
  0,                                      ! Sky Clearness
  0,                                      ! Rain Indicator
  0,                                      ! Snow Indicator
  21,                                     ! Day of Month
  12,                                     ! Month
  WinterDesignDay,                        ! Day Type
  0,                                      ! Daylight Saving Time Indicator
  Dewpoint,                               ! Humidity Indicating Type
  ,                                       ! Humidity Indicating Day Schedule Name
  DefaultMultipliers,                     ! Dry-Bulb Temperature Range Modifier Type
  ,                                       ! Dry-Bulb Temperature Range Modifier Schedule Name
  ASHRAEClearSky;                         ! Solar Model Indicator

