
OS:Version,
  {fba40eb6-1cb7-4ce1-ae0a-654bc1781ae2}, ! Handle
  0.9.3;                                  ! Version Identifier

OS:SizingPeriod:DesignDay,
  {945040d4-d04f-4d33-978b-d38f2497dec4}, ! Handle
  Yakima Ann Clg 2% Condns DP=>MDB,       ! Name
  23.2,                                   ! Maximum Dry-Bulb Temperature {C}
  17.9,                                   ! Daily Dry-Bulb Temperature Range {deltaC}
  13.3,                                   ! Humidity Indicating Conditions at Maximum Dry-Bulb {BasedOnField A3}
  97481,                                  ! Barometric Pressure {Pa}
  2.7,                                    ! Wind Speed {m/s}
  100,                                    ! Wind Direction {deg}
  0,                                      ! Sky Clearness
  0,                                      ! Rain Indicator
  0,                                      ! Snow Indicator
  21,                                     ! Day of Month
  7,                                      ! Month
  SummerDesignDay,                        ! Day Type
  0,                                      ! Daylight Saving Time Indicator
  Dewpoint,                               ! Humidity Indicating Type
  ,                                       ! Humidity Indicating Day Schedule Name
  DefaultMultipliers,                     ! Dry-Bulb Temperature Range Modifier Type
  ,                                       ! Dry-Bulb Temperature Range Modifier Schedule Name
  ASHRAETau,                              ! Solar Model Indicator
  ,                                       ! Beam Solar Day Schedule Name
  ,                                       ! Diffuse Solar Day Schedule Name
  0.395,                                  ! ASHRAE Taub {dimensionless}
  2.249;                                  ! ASHRAE Taud {dimensionless}

OS:ComponentData,
  {7dd53ac8-5c50-4359-a7a9-208177e8d2e6}, ! Handle
  Component Data 1,                       ! Name
  {15c29735-7070-46cb-a767-fc26ebee05f0}, ! UUID
  {57b3c1a4-27a5-461e-80b3-dd6056034ae0}, ! Version UUID
  1366311449,                             ! Creation Timestamp
  1366311449,                             ! Version Timestamp
  {945040d4-d04f-4d33-978b-d38f2497dec4}; ! Name of Object 1

