
OS:Version,
  {6dc56767-e2ba-40e5-b84e-df5234bea342}, ! Handle
  0.9.3;                                  ! Version Identifier

OS:SizingPeriod:DesignDay,
  {ac4ed41c-350f-4872-a382-8c8ae21a64f2}, ! Handle
  TRAVERSE_CITY Ann Clg 1% Condns DB=>MWB, ! Name
  29.9,                                   ! Maximum Dry-Bulb Temperature {C}
  11.8,                                   ! Daily Dry-Bulb Temperature Range {deltaC}
  21.1,                                   ! Humidity Indicating Conditions at Maximum Dry-Bulb {BasedOnField A3}
  99040,                                  ! Barometric Pressure {Pa}
  5.1,                                    ! Wind Speed {m/s}
  230,                                    ! Wind Direction {deg}
  0,                                      ! Sky Clearness
  0,                                      ! Rain Indicator
  0,                                      ! Snow Indicator
  21,                                     ! Day of Month
  7,                                      ! Month
  SummerDesignDay,                        ! Day Type
  0,                                      ! Daylight Saving Time Indicator
  Wetbulb,                                ! Humidity Indicating Type
  ,                                       ! Humidity Indicating Day Schedule Name
  DefaultMultipliers,                     ! Dry-Bulb Temperature Range Modifier Type
  ,                                       ! Dry-Bulb Temperature Range Modifier Schedule Name
  ASHRAETau,                              ! Solar Model Indicator
  ,                                       ! Beam Solar Day Schedule Name
  ,                                       ! Diffuse Solar Day Schedule Name
  0.422,                                  ! ASHRAE Taub {dimensionless}
  2.177;                                  ! ASHRAE Taud {dimensionless}

OS:ComponentData,
  {19715221-11d0-40ca-917d-6d2c7e8439c7}, ! Handle
  Component Data 1,                       ! Name
  {bce37c7c-6130-44a3-a167-ef53bc979a51}, ! UUID
  {bd798c80-44ca-4da9-8eec-37153bebfbce}, ! Version UUID
  1366308130,                             ! Creation Timestamp
  1366308130,                             ! Version Timestamp
  {ac4ed41c-350f-4872-a382-8c8ae21a64f2}; ! Name of Object 1

