
OS:Version,
  {5594e974-3208-4649-99c2-bfb11b44fa5b}, ! Handle
  0.9.3;                                  ! Version Identifier

OS:SizingPeriod:DesignDay,
  {02c6d13c-a059-4c15-876b-79f9dc8c76a6}, ! Handle
  Santa Barbara Municipal Ap Ann Hum_n 99% Condns DP=>MCDB, ! Name
  11.2,                                   ! Maximum Dry-Bulb Temperature {C}
  0,                                      ! Daily Dry-Bulb Temperature Range {deltaC}
  -3.8,                                   ! Humidity Indicating Conditions at Maximum Dry-Bulb {BasedOnField A3}
  101289,                                 ! Barometric Pressure {Pa}
  0.5,                                    ! Wind Speed {m/s}
  60,                                     ! Wind Direction {deg}
  0,                                      ! Sky Clearness
  0,                                      ! Rain Indicator
  0,                                      ! Snow Indicator
  21,                                     ! Day of Month
  12,                                     ! Month
  WinterDesignDay,                        ! Day Type
  0,                                      ! Daylight Saving Time Indicator
  Dewpoint,                               ! Humidity Indicating Type
  ,                                       ! Humidity Indicating Day Schedule Name
  DefaultMultipliers,                     ! Dry-Bulb Temperature Range Modifier Type
  ,                                       ! Dry-Bulb Temperature Range Modifier Schedule Name
  ASHRAEClearSky;                         ! Solar Model Indicator

OS:ComponentData,
  {b9e9cfb1-70e2-46e6-953a-8f19f37350db}, ! Handle
  Component Data 1,                       ! Name
  {48b951d8-7b61-41de-8ae2-7e4bd62ec1eb}, ! UUID
  {d6387db2-84a4-456a-9b00-de8b15544d5f}, ! Version UUID
  1366306607,                             ! Creation Timestamp
  1366306607,                             ! Version Timestamp
  {02c6d13c-a059-4c15-876b-79f9dc8c76a6}; ! Name of Object 1

