
OS:Version,
  {67551773-122a-4a84-b460-632bd5037c42}, ! Handle
  0.9.3;                                  ! Version Identifier

OS:SizingPeriod:DesignDay,
  {a0bec8c9-9a3a-4fb2-8738-c5086c872f32}, ! Handle
  Washington Ann Clg .4% Condns DB=>MWB,  ! Name
  34,                                     ! Maximum Dry-Bulb Temperature {C}
  10.8,                                   ! Daily Dry-Bulb Temperature Range {deltaC}
  26,                                     ! Humidity Indicating Conditions at Maximum Dry-Bulb {BasedOnField A3}
  98592,                                  ! Barometric Pressure {Pa}
  4.4,                                    ! Wind Speed {m/s}
  200,                                    ! Wind Direction {deg}
  0,                                      ! Sky Clearness
  0,                                      ! Rain Indicator
  0,                                      ! Snow Indicator
  21,                                     ! Day of Month
  7,                                      ! Month
  SummerDesignDay,                        ! Day Type
  0,                                      ! Daylight Saving Time Indicator
  Wetbulb,                                ! Humidity Indicating Type
  ,                                       ! Humidity Indicating Day Schedule Name
  DefaultMultipliers,                     ! Dry-Bulb Temperature Range Modifier Type
  ,                                       ! Dry-Bulb Temperature Range Modifier Schedule Name
  ASHRAETau,                              ! Solar Model Indicator
  ,                                       ! Beam Solar Day Schedule Name
  ,                                       ! Diffuse Solar Day Schedule Name
  0.446,                                  ! ASHRAE Taub {dimensionless}
  2.081;                                  ! ASHRAE Taud {dimensionless}

OS:ComponentData,
  {6b601146-5d62-46a8-a124-9e70c8c1cbad}, ! Handle
  Component Data 1,                       ! Name
  {1576a163-bb54-4aec-8a0d-2048de1c2465}, ! UUID
  {84d364d5-d63d-4a0a-8614-af0fee0e2b54}, ! Version UUID
  1366307248,                             ! Creation Timestamp
  1366307248,                             ! Version Timestamp
  {a0bec8c9-9a3a-4fb2-8738-c5086c872f32}; ! Name of Object 1

