
OS:Version,
  {03e3aaa4-64f6-4b59-8d74-18885d7cf42c}, ! Handle
  0.9.3;                                  ! Version Identifier

OS:SizingPeriod:DesignDay,
  {8ea7ab10-70a3-4b28-adf4-ca923007a37c}, ! Handle
  Portland Ann Clg 1% Condns DP=>MDB,     ! Name
  22.9,                                   ! Maximum Dry-Bulb Temperature {C}
  12.2,                                   ! Daily Dry-Bulb Temperature Range {deltaC}
  16.3,                                   ! Humidity Indicating Conditions at Maximum Dry-Bulb {BasedOnField A3}
  101181,                                 ! Barometric Pressure {Pa}
  4.7,                                    ! Wind Speed {m/s}
  310,                                    ! Wind Direction {deg}
  0,                                      ! Sky Clearness
  0,                                      ! Rain Indicator
  0,                                      ! Snow Indicator
  21,                                     ! Day of Month
  8,                                      ! Month
  SummerDesignDay,                        ! Day Type
  0,                                      ! Daylight Saving Time Indicator
  Dewpoint,                               ! Humidity Indicating Type
  ,                                       ! Humidity Indicating Day Schedule Name
  DefaultMultipliers,                     ! Dry-Bulb Temperature Range Modifier Type
  ,                                       ! Dry-Bulb Temperature Range Modifier Schedule Name
  ASHRAETau,                              ! Solar Model Indicator
  ,                                       ! Beam Solar Day Schedule Name
  ,                                       ! Diffuse Solar Day Schedule Name
  0.358,                                  ! ASHRAE Taub {dimensionless}
  2.549;                                  ! ASHRAE Taud {dimensionless}

OS:ComponentData,
  {2332b944-94d2-41a6-a1e8-b5c9174a1a04}, ! Handle
  Component Data 1,                       ! Name
  {c88526b5-3a93-487b-9ec3-f330c7bb3af2}, ! UUID
  {a00421a8-0a79-4eef-8d9f-883d2a54b581}, ! Version UUID
  1366310079,                             ! Creation Timestamp
  1366310079,                             ! Version Timestamp
  {8ea7ab10-70a3-4b28-adf4-ca923007a37c}; ! Name of Object 1

