
OS:Version,
  {a9667bbf-0532-4175-a507-f0f50f03720d}, ! Handle
  0.9.3;                                  ! Version Identifier

OS:SizingPeriod:DesignDay,
  {ba3dda42-8aff-4cfd-abdf-1956192f70c1}, ! Handle
  MOLINE Ann Clg .4% Condns DB=>MWB,      ! Name
  34.1,                                   ! Maximum Dry-Bulb Temperature {C}
  11.1,                                   ! Daily Dry-Bulb Temperature Range {deltaC}
  24.6,                                   ! Humidity Indicating Conditions at Maximum Dry-Bulb {BasedOnField A3}
  99169,                                  ! Barometric Pressure {Pa}
  4.9,                                    ! Wind Speed {m/s}
  210,                                    ! Wind Direction {deg}
  0,                                      ! Sky Clearness
  0,                                      ! Rain Indicator
  0,                                      ! Snow Indicator
  21,                                     ! Day of Month
  7,                                      ! Month
  SummerDesignDay,                        ! Day Type
  0,                                      ! Daylight Saving Time Indicator
  Wetbulb,                                ! Humidity Indicating Type
  ,                                       ! Humidity Indicating Day Schedule Name
  DefaultMultipliers,                     ! Dry-Bulb Temperature Range Modifier Type
  ,                                       ! Dry-Bulb Temperature Range Modifier Schedule Name
  ASHRAETau,                              ! Solar Model Indicator
  ,                                       ! Beam Solar Day Schedule Name
  ,                                       ! Diffuse Solar Day Schedule Name
  0.449,                                  ! ASHRAE Taub {dimensionless}
  2.068;                                  ! ASHRAE Taud {dimensionless}

OS:ComponentData,
  {8da9cdf2-7961-4498-9758-6c3a69aaa8d5}, ! Handle
  Component Data 1,                       ! Name
  {dce66efd-b00f-4cea-8cb3-2c12e97e3a21}, ! UUID
  {f19e90a2-273d-4650-96c1-902de01e44de}, ! Version UUID
  1366307372,                             ! Creation Timestamp
  1366307372,                             ! Version Timestamp
  {ba3dda42-8aff-4cfd-abdf-1956192f70c1}; ! Name of Object 1

