
OS:Version,
  {0b984853-30f9-41ac-98b7-762b3d62ac2f}, ! Handle
  0.9.3;                                  ! Version Identifier

OS:SizingPeriod:DesignDay,
  {7df6e11e-e9fd-4444-83e5-2325782aa142}, ! Handle
  Shreveport Ann Htg 99.6% Condns DB,     ! Name
  -4.6,                                   ! Maximum Dry-Bulb Temperature {C}
  0,                                      ! Daily Dry-Bulb Temperature Range {deltaC}
  -4.6,                                   ! Humidity Indicating Conditions at Maximum Dry-Bulb {BasedOnField A3}
  100380,                                 ! Barometric Pressure {Pa}
  3.4,                                    ! Wind Speed {m/s}
  350,                                    ! Wind Direction {deg}
  0,                                      ! Sky Clearness
  0,                                      ! Rain Indicator
  0,                                      ! Snow Indicator
  21,                                     ! Day of Month
  1,                                      ! Month
  WinterDesignDay,                        ! Day Type
  0,                                      ! Daylight Saving Time Indicator
  Wetbulb,                                ! Humidity Indicating Type
  ,                                       ! Humidity Indicating Day Schedule Name
  DefaultMultipliers,                     ! Dry-Bulb Temperature Range Modifier Type
  ,                                       ! Dry-Bulb Temperature Range Modifier Schedule Name
  ASHRAEClearSky;                         ! Solar Model Indicator

OS:ComponentData,
  {e57a53a3-c24c-4053-9a6f-e1c5601b5227}, ! Handle
  Component Data 1,                       ! Name
  {18bd288c-6d31-4e85-bada-2eeeccca25de}, ! UUID
  {5880443a-0f06-4cf9-9c5d-8e58235e7d37}, ! Version UUID
  1366307768,                             ! Creation Timestamp
  1366307768,                             ! Version Timestamp
  {7df6e11e-e9fd-4444-83e5-2325782aa142}; ! Name of Object 1

