
OS:Version,
  {74b076d1-1662-4a51-90ab-d4108cfab964}, ! Handle
  0.9.3;                                  ! Version Identifier

OS:SizingPeriod:DesignDay,
  {53339109-cc3c-4ae7-8495-a9cc7f9f8408}, ! Handle
  Yakutat Ann Clg .4% Condns DP=>MDB,     ! Name
  14.9,                                   ! Maximum Dry-Bulb Temperature {C}
  5.8,                                    ! Daily Dry-Bulb Temperature Range {deltaC}
  13.5,                                   ! Humidity Indicating Conditions at Maximum Dry-Bulb {BasedOnField A3}
  101217,                                 ! Barometric Pressure {Pa}
  3.4,                                    ! Wind Speed {m/s}
  320,                                    ! Wind Direction {deg}
  0,                                      ! Sky Clearness
  0,                                      ! Rain Indicator
  0,                                      ! Snow Indicator
  21,                                     ! Day of Month
  7,                                      ! Month
  SummerDesignDay,                        ! Day Type
  0,                                      ! Daylight Saving Time Indicator
  Dewpoint,                               ! Humidity Indicating Type
  ,                                       ! Humidity Indicating Day Schedule Name
  DefaultMultipliers,                     ! Dry-Bulb Temperature Range Modifier Type
  ,                                       ! Dry-Bulb Temperature Range Modifier Schedule Name
  ASHRAETau,                              ! Solar Model Indicator
  ,                                       ! Beam Solar Day Schedule Name
  ,                                       ! Diffuse Solar Day Schedule Name
  0.371,                                  ! ASHRAE Taub {dimensionless}
  2.194;                                  ! ASHRAE Taud {dimensionless}

OS:ComponentData,
  {52c4c16f-6fc4-45fa-8e52-71c3810f09a9}, ! Handle
  Component Data 1,                       ! Name
  {5b576f5c-c808-434e-bc8d-0b13fc8629c6}, ! UUID
  {a2a905fd-c769-4956-be42-cfed22c37aed}, ! Version UUID
  1366305623,                             ! Creation Timestamp
  1366305623,                             ! Version Timestamp
  {53339109-cc3c-4ae7-8495-a9cc7f9f8408}; ! Name of Object 1

