
OS:Version,
  {c699594c-6a4e-4992-bec8-9b4f9d5cedac}, ! Handle
  0.9.3;                                  ! Version Identifier

OS:SizingPeriod:DesignDay,
  {1f28e48a-16d9-4826-b019-17e5e0e91abc}, ! Handle
  St Cloud Regional Arpt Ann Htg Wind 99% Condns WS=>MCDB, ! Name
  -8.4,                                   ! Maximum Dry-Bulb Temperature {C}
  0,                                      ! Daily Dry-Bulb Temperature Range {deltaC}
  -8.4,                                   ! Humidity Indicating Conditions at Maximum Dry-Bulb {BasedOnField A3}
  97644,                                  ! Barometric Pressure {Pa}
  10.3,                                   ! Wind Speed {m/s}
  310,                                    ! Wind Direction {deg}
  0,                                      ! Sky Clearness
  0,                                      ! Rain Indicator
  0,                                      ! Snow Indicator
  21,                                     ! Day of Month
  1,                                      ! Month
  WinterDesignDay,                        ! Day Type
  0,                                      ! Daylight Saving Time Indicator
  Wetbulb,                                ! Humidity Indicating Type
  ,                                       ! Humidity Indicating Day Schedule Name
  DefaultMultipliers,                     ! Dry-Bulb Temperature Range Modifier Type
  ,                                       ! Dry-Bulb Temperature Range Modifier Schedule Name
  ASHRAEClearSky;                         ! Solar Model Indicator

OS:ComponentData,
  {1536dd66-52f1-4871-9bdc-388a78759503}, ! Handle
  Component Data 1,                       ! Name
  {685ffd67-cfc6-4075-bd8d-076955e3138b}, ! UUID
  {6ec20f84-9d08-460e-8204-ac25c38a41ff}, ! Version UUID
  1366308427,                             ! Creation Timestamp
  1366308427,                             ! Version Timestamp
  {1f28e48a-16d9-4826-b019-17e5e0e91abc}; ! Name of Object 1

