
OS:Version,
  {dc99b005-9548-4379-8198-2276af27a13d}, ! Handle
  0.9.3;                                  ! Version Identifier

OS:SizingPeriod:DesignDay,
  {9dd390e7-bb0e-408b-ab93-85ddc9e7398d}, ! Handle
  Myrtle Beach Afb Ann Clg 1% Condns DP=>MDB, ! Name
  29.6,                                   ! Maximum Dry-Bulb Temperature {C}
  7.8,                                    ! Daily Dry-Bulb Temperature Range {deltaC}
  25.8,                                   ! Humidity Indicating Conditions at Maximum Dry-Bulb {BasedOnField A3}
  101229,                                 ! Barometric Pressure {Pa}
  3.6,                                    ! Wind Speed {m/s}
  180,                                    ! Wind Direction {deg}
  0,                                      ! Sky Clearness
  0,                                      ! Rain Indicator
  0,                                      ! Snow Indicator
  21,                                     ! Day of Month
  7,                                      ! Month
  SummerDesignDay,                        ! Day Type
  0,                                      ! Daylight Saving Time Indicator
  Dewpoint,                               ! Humidity Indicating Type
  ,                                       ! Humidity Indicating Day Schedule Name
  DefaultMultipliers,                     ! Dry-Bulb Temperature Range Modifier Type
  ,                                       ! Dry-Bulb Temperature Range Modifier Schedule Name
  ASHRAETau,                              ! Solar Model Indicator
  ,                                       ! Beam Solar Day Schedule Name
  ,                                       ! Diffuse Solar Day Schedule Name
  0.573,                                  ! ASHRAE Taub {dimensionless}
  1.77;                                   ! ASHRAE Taud {dimensionless}

OS:ComponentData,
  {62345ff0-b35d-4336-8546-1d465f1d9fff}, ! Handle
  Component Data 1,                       ! Name
  {3e6cbc4a-0ada-41c4-90c6-1f4e9c46f9b8}, ! UUID
  {aaa6c24d-4533-455f-9b13-60b5c92112a8}, ! Version UUID
  1366310374,                             ! Creation Timestamp
  1366310374,                             ! Version Timestamp
  {9dd390e7-bb0e-408b-ab93-85ddc9e7398d}; ! Name of Object 1

