
OS:Version,
  {5349f413-66ea-493f-ad61-170b93ffe0dd}, ! Handle
  0.9.3;                                  ! Version Identifier

OS:SizingPeriod:DesignDay,
  {8ca25458-6114-4b93-acc9-a19d7367a9df}, ! Handle
  Omaha/Eppley Airfield Ann Htg Wind 99% Condns WS=>MCDB, ! Name
  -6.2,                                   ! Maximum Dry-Bulb Temperature {C}
  0,                                      ! Daily Dry-Bulb Temperature Range {deltaC}
  -6.2,                                   ! Humidity Indicating Conditions at Maximum Dry-Bulb {BasedOnField A3}
  97784,                                  ! Barometric Pressure {Pa}
  12,                                     ! Wind Speed {m/s}
  340,                                    ! Wind Direction {deg}
  0,                                      ! Sky Clearness
  0,                                      ! Rain Indicator
  0,                                      ! Snow Indicator
  21,                                     ! Day of Month
  1,                                      ! Month
  WinterDesignDay,                        ! Day Type
  0,                                      ! Daylight Saving Time Indicator
  Wetbulb,                                ! Humidity Indicating Type
  ,                                       ! Humidity Indicating Day Schedule Name
  DefaultMultipliers,                     ! Dry-Bulb Temperature Range Modifier Type
  ,                                       ! Dry-Bulb Temperature Range Modifier Schedule Name
  ASHRAEClearSky;                         ! Solar Model Indicator

OS:ComponentData,
  {d8541d52-948d-4b69-9710-1b0c918b2304}, ! Handle
  Component Data 1,                       ! Name
  {3cc08c24-c39f-426a-b96f-228f7d861136}, ! UUID
  {494bafff-66d7-469a-9ea1-480fafa2b40d}, ! Version UUID
  1366309168,                             ! Creation Timestamp
  1366309168,                             ! Version Timestamp
  {8ca25458-6114-4b93-acc9-a19d7367a9df}; ! Name of Object 1

