
OS:Version,
  {261a620e-5c48-40d9-880c-40b2a778f3f9}, ! Handle
  0.9.3;                                  ! Version Identifier

OS:SizingPeriod:DesignDay,
  {f57a34c2-b4d2-4fdc-920c-07ef393003f0}, ! Handle
  Trinidad Las Animas County Ap Ann Clg 1% Condns Enth=>MDB, ! Name
  27.2,                                   ! Maximum Dry-Bulb Temperature {C}
  15.6,                                   ! Daily Dry-Bulb Temperature Range {deltaC}
  56300,                                  ! Humidity Indicating Conditions at Maximum Dry-Bulb {BasedOnField A3}
  81984,                                  ! Barometric Pressure {Pa}
  4.7,                                    ! Wind Speed {m/s}
  180,                                    ! Wind Direction {deg}
  0,                                      ! Sky Clearness
  0,                                      ! Rain Indicator
  0,                                      ! Snow Indicator
  21,                                     ! Day of Month
  7,                                      ! Month
  SummerDesignDay,                        ! Day Type
  0,                                      ! Daylight Saving Time Indicator
  Enthalpy,                               ! Humidity Indicating Type
  ,                                       ! Humidity Indicating Day Schedule Name
  DefaultMultipliers,                     ! Dry-Bulb Temperature Range Modifier Type
  ,                                       ! Dry-Bulb Temperature Range Modifier Schedule Name
  ASHRAETau,                              ! Solar Model Indicator
  ,                                       ! Beam Solar Day Schedule Name
  ,                                       ! Diffuse Solar Day Schedule Name
  0.396,                                  ! ASHRAE Taub {dimensionless}
  2.111;                                  ! ASHRAE Taud {dimensionless}

OS:ComponentData,
  {9dec04f4-616b-4415-8766-172eb1f5a8cc}, ! Handle
  Component Data 1,                       ! Name
  {b8339367-c028-4e09-b2af-9b6a3cf8ba9d}, ! UUID
  {66ed0822-19e1-4d83-9db7-a95efa3900b0}, ! Version UUID
  1366306744,                             ! Creation Timestamp
  1366306744,                             ! Version Timestamp
  {f57a34c2-b4d2-4fdc-920c-07ef393003f0}; ! Name of Object 1

