
OS:Version,
  {9a7b3686-a8e1-493e-8554-bae8be96aaae}, ! Handle
  0.9.3;                                  ! Version Identifier

OS:SizingPeriod:DesignDay,
  {cfe991a7-e14d-49fc-9c38-a55773c31378}, ! Handle
  Wilmington New Castle Cnty Ap Ann Clg 2% Condns DB=>MWB, ! Name
  30.4,                                   ! Maximum Dry-Bulb Temperature {C}
  9.5,                                    ! Daily Dry-Bulb Temperature Range {deltaC}
  22.9,                                   ! Humidity Indicating Conditions at Maximum Dry-Bulb {BasedOnField A3}
  101049,                                 ! Barometric Pressure {Pa}
  4.6,                                    ! Wind Speed {m/s}
  240,                                    ! Wind Direction {deg}
  0,                                      ! Sky Clearness
  0,                                      ! Rain Indicator
  0,                                      ! Snow Indicator
  21,                                     ! Day of Month
  7,                                      ! Month
  SummerDesignDay,                        ! Day Type
  0,                                      ! Daylight Saving Time Indicator
  Wetbulb,                                ! Humidity Indicating Type
  ,                                       ! Humidity Indicating Day Schedule Name
  DefaultMultipliers,                     ! Dry-Bulb Temperature Range Modifier Type
  ,                                       ! Dry-Bulb Temperature Range Modifier Schedule Name
  ASHRAETau,                              ! Solar Model Indicator
  ,                                       ! Beam Solar Day Schedule Name
  ,                                       ! Diffuse Solar Day Schedule Name
  0.557,                                  ! ASHRAE Taub {dimensionless}
  1.755;                                  ! ASHRAE Taud {dimensionless}

OS:ComponentData,
  {2d76a584-385d-4010-bc2a-9d96ca6d114b}, ! Handle
  Component Data 1,                       ! Name
  {62599e20-cf04-4fb3-a4e4-bcfe04902a1c}, ! UUID
  {bca40849-8300-485d-b354-218b3a2ebaac}, ! Version UUID
  1366306776,                             ! Creation Timestamp
  1366306776,                             ! Version Timestamp
  {cfe991a7-e14d-49fc-9c38-a55773c31378}; ! Name of Object 1

