
OS:Version,
  {ea73c471-a888-4b26-8f08-bad6c4256765}, ! Handle
  0.9.3;                                  ! Version Identifier

OS:SizingPeriod:DesignDay,
  {0769e587-5956-4f0d-b72e-1b3cfdda7281}, ! Handle
  Marshfield Muni Ann Clg .4% Condns DP=>MDB, ! Name
  27,                                     ! Maximum Dry-Bulb Temperature {C}
  11.2,                                   ! Daily Dry-Bulb Temperature Range {deltaC}
  22.5,                                   ! Humidity Indicating Conditions at Maximum Dry-Bulb {BasedOnField A3}
  96738,                                  ! Barometric Pressure {Pa}
  4.2,                                    ! Wind Speed {m/s}
  190,                                    ! Wind Direction {deg}
  0,                                      ! Sky Clearness
  0,                                      ! Rain Indicator
  0,                                      ! Snow Indicator
  21,                                     ! Day of Month
  7,                                      ! Month
  SummerDesignDay,                        ! Day Type
  0,                                      ! Daylight Saving Time Indicator
  Dewpoint,                               ! Humidity Indicating Type
  ,                                       ! Humidity Indicating Day Schedule Name
  DefaultMultipliers,                     ! Dry-Bulb Temperature Range Modifier Type
  ,                                       ! Dry-Bulb Temperature Range Modifier Schedule Name
  ASHRAETau,                              ! Solar Model Indicator
  ,                                       ! Beam Solar Day Schedule Name
  ,                                       ! Diffuse Solar Day Schedule Name
  0.412,                                  ! ASHRAE Taub {dimensionless}
  2.17;                                   ! ASHRAE Taud {dimensionless}

OS:ComponentData,
  {2e6ca0fc-8cd3-4722-9de5-a615ba7016f2}, ! Handle
  Component Data 1,                       ! Name
  {1a9cf310-a9bb-4aa4-b508-001b2a58fb59}, ! UUID
  {b3b02bfe-ac33-41c0-b730-77477056f735}, ! Version UUID
  1366311543,                             ! Creation Timestamp
  1366311543,                             ! Version Timestamp
  {0769e587-5956-4f0d-b72e-1b3cfdda7281}; ! Name of Object 1

