
OS:Version,
  {24154138-6d1b-4b4c-a96a-d44933c4bdfd}, ! Handle
  0.9.3;                                  ! Version Identifier

OS:SizingPeriod:DesignDay,
  {ce2ebe9f-e69b-453e-9977-3552f53994a2}, ! Handle
  Sand Point Ann Clg .4% Condns WB=>MDB,  ! Name
  15.1,                                   ! Maximum Dry-Bulb Temperature {C}
  3.8,                                    ! Daily Dry-Bulb Temperature Range {deltaC}
  13,                                     ! Humidity Indicating Conditions at Maximum Dry-Bulb {BasedOnField A3}
  101241,                                 ! Barometric Pressure {Pa}
  4.2,                                    ! Wind Speed {m/s}
  350,                                    ! Wind Direction {deg}
  0,                                      ! Sky Clearness
  0,                                      ! Rain Indicator
  0,                                      ! Snow Indicator
  21,                                     ! Day of Month
  8,                                      ! Month
  SummerDesignDay,                        ! Day Type
  0,                                      ! Daylight Saving Time Indicator
  Wetbulb,                                ! Humidity Indicating Type
  ,                                       ! Humidity Indicating Day Schedule Name
  DefaultMultipliers,                     ! Dry-Bulb Temperature Range Modifier Type
  ,                                       ! Dry-Bulb Temperature Range Modifier Schedule Name
  ASHRAETau,                              ! Solar Model Indicator
  ,                                       ! Beam Solar Day Schedule Name
  ,                                       ! Diffuse Solar Day Schedule Name
  0.381,                                  ! ASHRAE Taub {dimensionless}
  2.28;                                   ! ASHRAE Taud {dimensionless}

OS:ComponentData,
  {60fc8480-8709-428a-a2e7-f30722234b15}, ! Handle
  Component Data 1,                       ! Name
  {c776d309-d968-4fd3-8ff9-955bc451f4e0}, ! UUID
  {ffb18d50-863a-4597-aba5-3a8e9cdb090d}, ! Version UUID
  1366305522,                             ! Creation Timestamp
  1366305522,                             ! Version Timestamp
  {ce2ebe9f-e69b-453e-9977-3552f53994a2}; ! Name of Object 1

