
OS:Version,
  {60d2addb-f81f-4dfa-be81-8ae7c1e4d249}, ! Handle
  0.9.3;                                  ! Version Identifier

OS:SizingPeriod:DesignDay,
  {400e3e68-349a-4a62-9c5c-a113e85f4ffe}, ! Handle
  St Clair County Int Ann Htg Wind 99.6% Condns WS=>MCDB, ! Name
  -1.7,                                   ! Maximum Dry-Bulb Temperature {C}
  0,                                      ! Daily Dry-Bulb Temperature Range {deltaC}
  -1.7,                                   ! Humidity Indicating Conditions at Maximum Dry-Bulb {BasedOnField A3}
  98969,                                  ! Barometric Pressure {Pa}
  9.3,                                    ! Wind Speed {m/s}
  290,                                    ! Wind Direction {deg}
  0,                                      ! Sky Clearness
  0,                                      ! Rain Indicator
  0,                                      ! Snow Indicator
  21,                                     ! Day of Month
  1,                                      ! Month
  WinterDesignDay,                        ! Day Type
  0,                                      ! Daylight Saving Time Indicator
  Wetbulb,                                ! Humidity Indicating Type
  ,                                       ! Humidity Indicating Day Schedule Name
  DefaultMultipliers,                     ! Dry-Bulb Temperature Range Modifier Type
  ,                                       ! Dry-Bulb Temperature Range Modifier Schedule Name
  ASHRAEClearSky;                         ! Solar Model Indicator

OS:ComponentData,
  {0196f148-b931-417b-bb68-9fb9e25634a7}, ! Handle
  Component Data 1,                       ! Name
  {96192886-ef56-499e-9bc5-736f85abc910}, ! UUID
  {62b34eb3-1b2d-4e37-8e73-52311061e03b}, ! Version UUID
  1366308115,                             ! Creation Timestamp
  1366308115,                             ! Version Timestamp
  {400e3e68-349a-4a62-9c5c-a113e85f4ffe}; ! Name of Object 1

