
OS:Version,
  {9a48665e-3bdc-4cd6-bcab-3f3ee159d412}, ! Handle
  0.9.3;                                  ! Version Identifier

OS:SizingPeriod:DesignDay,
  {684df864-d06a-43f6-be12-5909544955c7}, ! Handle
  Vichy Rolla Natl Arpt Ann Clg 2% Condns WB=>MDB, ! Name
  30,                                     ! Maximum Dry-Bulb Temperature {C}
  11.1,                                   ! Daily Dry-Bulb Temperature Range {deltaC}
  24.4,                                   ! Humidity Indicating Conditions at Maximum Dry-Bulb {BasedOnField A3}
  97353,                                  ! Barometric Pressure {Pa}
  4.1,                                    ! Wind Speed {m/s}
  230,                                    ! Wind Direction {deg}
  0,                                      ! Sky Clearness
  0,                                      ! Rain Indicator
  0,                                      ! Snow Indicator
  21,                                     ! Day of Month
  7,                                      ! Month
  SummerDesignDay,                        ! Day Type
  0,                                      ! Daylight Saving Time Indicator
  Wetbulb,                                ! Humidity Indicating Type
  ,                                       ! Humidity Indicating Day Schedule Name
  DefaultMultipliers,                     ! Dry-Bulb Temperature Range Modifier Type
  ,                                       ! Dry-Bulb Temperature Range Modifier Schedule Name
  ASHRAETau,                              ! Solar Model Indicator
  ,                                       ! Beam Solar Day Schedule Name
  ,                                       ! Diffuse Solar Day Schedule Name
  0.446,                                  ! ASHRAE Taub {dimensionless}
  2.105;                                  ! ASHRAE Taud {dimensionless}

OS:ComponentData,
  {5805fce4-2111-4c34-9819-6ef7b3c3bb76}, ! Handle
  Component Data 1,                       ! Name
  {87ee8f48-ea86-4f5c-8c2f-0f73bd233365}, ! UUID
  {322514d6-4af9-4c20-a9c1-eca289d35549}, ! Version UUID
  1366308551,                             ! Creation Timestamp
  1366308551,                             ! Version Timestamp
  {684df864-d06a-43f6-be12-5909544955c7}; ! Name of Object 1

