
OS:Version,
  {cffe53c7-c898-464c-95bc-406417d1942d}, ! Handle
  0.9.3;                                  ! Version Identifier

OS:SizingPeriod:DesignDay,
  {de3fca92-cc9e-4f7a-aa58-71f0784dd73e}, ! Handle
  Stuttgart  Awos Ann Clg 1% Condns DB=>MWB, ! Name
  34.1,                                   ! Maximum Dry-Bulb Temperature {C}
  9.6,                                    ! Daily Dry-Bulb Temperature Range {deltaC}
  24.8,                                   ! Humidity Indicating Conditions at Maximum Dry-Bulb {BasedOnField A3}
  100511,                                 ! Barometric Pressure {Pa}
  3.7,                                    ! Wind Speed {m/s}
  220,                                    ! Wind Direction {deg}
  0,                                      ! Sky Clearness
  0,                                      ! Rain Indicator
  0,                                      ! Snow Indicator
  21,                                     ! Day of Month
  7,                                      ! Month
  SummerDesignDay,                        ! Day Type
  0,                                      ! Daylight Saving Time Indicator
  Wetbulb,                                ! Humidity Indicating Type
  ,                                       ! Humidity Indicating Day Schedule Name
  DefaultMultipliers,                     ! Dry-Bulb Temperature Range Modifier Type
  ,                                       ! Dry-Bulb Temperature Range Modifier Schedule Name
  ASHRAETau,                              ! Solar Model Indicator
  ,                                       ! Beam Solar Day Schedule Name
  ,                                       ! Diffuse Solar Day Schedule Name
  0.515,                                  ! ASHRAE Taub {dimensionless}
  1.894;                                  ! ASHRAE Taud {dimensionless}

OS:ComponentData,
  {74b779c5-f4b6-434a-825b-34f4a231cbaf}, ! Handle
  Component Data 1,                       ! Name
  {e36e29a9-ad72-4ac3-90b4-2e75ce78fd2d}, ! UUID
  {1e8da59a-f2c1-47af-b6ea-65416ef03efe}, ! Version UUID
  1366306249,                             ! Creation Timestamp
  1366306249,                             ! Version Timestamp
  {de3fca92-cc9e-4f7a-aa58-71f0784dd73e}; ! Name of Object 1

