
OS:Version,
  {b68e754f-e6d4-4ab6-bffd-e1316321a504}, ! Handle
  0.9.3;                                  ! Version Identifier

OS:SizingPeriod:DesignDay,
  {33c4d1a5-2e75-4030-9c70-18dd6142e8f7}, ! Handle
  Midland International Ap Ann Clg 1% Condns DB=>MWB, ! Name
  36.7,                                   ! Maximum Dry-Bulb Temperature {C}
  13.1,                                   ! Daily Dry-Bulb Temperature Range {deltaC}
  19.7,                                   ! Humidity Indicating Conditions at Maximum Dry-Bulb {BasedOnField A3}
  91279,                                  ! Barometric Pressure {Pa}
  5.7,                                    ! Wind Speed {m/s}
  150,                                    ! Wind Direction {deg}
  0,                                      ! Sky Clearness
  0,                                      ! Rain Indicator
  0,                                      ! Snow Indicator
  21,                                     ! Day of Month
  7,                                      ! Month
  SummerDesignDay,                        ! Day Type
  0,                                      ! Daylight Saving Time Indicator
  Wetbulb,                                ! Humidity Indicating Type
  ,                                       ! Humidity Indicating Day Schedule Name
  DefaultMultipliers,                     ! Dry-Bulb Temperature Range Modifier Type
  ,                                       ! Dry-Bulb Temperature Range Modifier Schedule Name
  ASHRAETau,                              ! Solar Model Indicator
  ,                                       ! Beam Solar Day Schedule Name
  ,                                       ! Diffuse Solar Day Schedule Name
  0.443,                                  ! ASHRAE Taub {dimensionless}
  2.032;                                  ! ASHRAE Taud {dimensionless}

OS:ComponentData,
  {45183135-bc46-479e-ab0b-70a50372ca0d}, ! Handle
  Component Data 1,                       ! Name
  {57819126-5658-462c-9579-b04d483b94f3}, ! UUID
  {00c61ebf-b7cd-436e-98c7-164bfd60ecc3}, ! Version UUID
  1366310835,                             ! Creation Timestamp
  1366310835,                             ! Version Timestamp
  {33c4d1a5-2e75-4030-9c70-18dd6142e8f7}; ! Name of Object 1

