
OS:Version,
  {54ad785c-5ae2-49f8-8e68-6af19e9a3fd9}, ! Handle
  0.9.3;                                  ! Version Identifier

OS:SizingPeriod:DesignDay,
  {de9299c2-d1f9-4700-b304-a7b44c889be6}, ! Handle
  St Louis Spirit Of St Louis A Ann Clg .4% Condns Enth=>MDB, ! Name
  32.6,                                   ! Maximum Dry-Bulb Temperature {C}
  11.1,                                   ! Daily Dry-Bulb Temperature Range {deltaC}
  83700,                                  ! Humidity Indicating Conditions at Maximum Dry-Bulb {BasedOnField A3}
  99643,                                  ! Barometric Pressure {Pa}
  4.1,                                    ! Wind Speed {m/s}
  220,                                    ! Wind Direction {deg}
  0,                                      ! Sky Clearness
  0,                                      ! Rain Indicator
  0,                                      ! Snow Indicator
  21,                                     ! Day of Month
  7,                                      ! Month
  SummerDesignDay,                        ! Day Type
  0,                                      ! Daylight Saving Time Indicator
  Enthalpy,                               ! Humidity Indicating Type
  ,                                       ! Humidity Indicating Day Schedule Name
  DefaultMultipliers,                     ! Dry-Bulb Temperature Range Modifier Type
  ,                                       ! Dry-Bulb Temperature Range Modifier Schedule Name
  ASHRAETau,                              ! Solar Model Indicator
  ,                                       ! Beam Solar Day Schedule Name
  ,                                       ! Diffuse Solar Day Schedule Name
  0.475,                                  ! ASHRAE Taub {dimensionless}
  1.999;                                  ! ASHRAE Taud {dimensionless}

OS:ComponentData,
  {62d59bd2-e40c-41e1-9d7b-ad7d4e729f7b}, ! Handle
  Component Data 1,                       ! Name
  {b7530a7a-de44-418b-8d3a-2234765c5b6c}, ! UUID
  {5ddd1aa8-8a00-4a8e-b218-fb6277d04557}, ! Version UUID
  1366308591,                             ! Creation Timestamp
  1366308591,                             ! Version Timestamp
  {de9299c2-d1f9-4700-b304-a7b44c889be6}; ! Name of Object 1

