
OS:Version,
  {edcd2c27-c3f3-49a1-ab54-21d3012bcfee}, ! Handle
  0.9.3;                                  ! Version Identifier

OS:SizingPeriod:DesignDay,
  {73b810ad-08dc-4c37-b853-db7aa2e6a69b}, ! Handle
  OMAHA Ann Clg 2% Condns WB=>MDB,        ! Name
  29.7,                                   ! Maximum Dry-Bulb Temperature {C}
  11,                                     ! Daily Dry-Bulb Temperature Range {deltaC}
  24.3,                                   ! Humidity Indicating Conditions at Maximum Dry-Bulb {BasedOnField A3}
  96565,                                  ! Barometric Pressure {Pa}
  6.1,                                    ! Wind Speed {m/s}
  180,                                    ! Wind Direction {deg}
  0,                                      ! Sky Clearness
  0,                                      ! Rain Indicator
  0,                                      ! Snow Indicator
  21,                                     ! Day of Month
  7,                                      ! Month
  SummerDesignDay,                        ! Day Type
  0,                                      ! Daylight Saving Time Indicator
  Wetbulb,                                ! Humidity Indicating Type
  ,                                       ! Humidity Indicating Day Schedule Name
  DefaultMultipliers,                     ! Dry-Bulb Temperature Range Modifier Type
  ,                                       ! Dry-Bulb Temperature Range Modifier Schedule Name
  ASHRAETau,                              ! Solar Model Indicator
  ,                                       ! Beam Solar Day Schedule Name
  ,                                       ! Diffuse Solar Day Schedule Name
  0.421,                                  ! ASHRAE Taub {dimensionless}
  2.196;                                  ! ASHRAE Taud {dimensionless}

OS:ComponentData,
  {c201fced-fc38-45e1-8243-52b62f321469}, ! Handle
  Component Data 1,                       ! Name
  {9ccdb336-25fb-459e-be66-a4b901709a45}, ! UUID
  {c83cfdd3-4833-41d6-8744-3dcdcd018d05}, ! Version UUID
  1366309177,                             ! Creation Timestamp
  1366309177,                             ! Version Timestamp
  {73b810ad-08dc-4c37-b853-db7aa2e6a69b}; ! Name of Object 1

