
OS:Version,
  {170a78e2-f46a-4598-8087-b722aab2d594}, ! Handle
  0.9.3;                                  ! Version Identifier

OS:SizingPeriod:DesignDay,
  {0adde959-f292-4e77-8cb5-da1943981805}, ! Handle
  Missoula International Ap Ann Clg .4% Condns DP=>MDB, ! Name
  20.7,                                   ! Maximum Dry-Bulb Temperature {C}
  17.5,                                   ! Daily Dry-Bulb Temperature Range {deltaC}
  15.2,                                   ! Humidity Indicating Conditions at Maximum Dry-Bulb {BasedOnField A3}
  90169,                                  ! Barometric Pressure {Pa}
  4.4,                                    ! Wind Speed {m/s}
  320,                                    ! Wind Direction {deg}
  0,                                      ! Sky Clearness
  0,                                      ! Rain Indicator
  0,                                      ! Snow Indicator
  21,                                     ! Day of Month
  7,                                      ! Month
  SummerDesignDay,                        ! Day Type
  0,                                      ! Daylight Saving Time Indicator
  Dewpoint,                               ! Humidity Indicating Type
  ,                                       ! Humidity Indicating Day Schedule Name
  DefaultMultipliers,                     ! Dry-Bulb Temperature Range Modifier Type
  ,                                       ! Dry-Bulb Temperature Range Modifier Schedule Name
  ASHRAETau,                              ! Solar Model Indicator
  ,                                       ! Beam Solar Day Schedule Name
  ,                                       ! Diffuse Solar Day Schedule Name
  0.357,                                  ! ASHRAE Taub {dimensionless}
  2.409;                                  ! ASHRAE Taud {dimensionless}

OS:ComponentData,
  {7b2ed48b-2e1b-45b9-b550-6eee9b0b1eeb}, ! Handle
  Component Data 1,                       ! Name
  {45f2afe6-ecfb-445b-9d7e-9e1f67729e7e}, ! UUID
  {f9271dc4-9174-49f8-a373-7d34d5fb339f}, ! Version UUID
  1366308850,                             ! Creation Timestamp
  1366308850,                             ! Version Timestamp
  {0adde959-f292-4e77-8cb5-da1943981805}; ! Name of Object 1

