
OS:Version,
  {fab0cd24-8491-4e63-ad5d-ad2693f7059a}, ! Handle
  0.9.3;                                  ! Version Identifier

OS:SizingPeriod:DesignDay,
  {148420f0-f166-4350-be23-85f924facbf0}, ! Handle
  Toledo Ann Htg Wind 99% Condns WS=>MCDB, ! Name
  -5.3,                                   ! Maximum Dry-Bulb Temperature {C}
  0,                                      ! Daily Dry-Bulb Temperature Range {deltaC}
  -5.3,                                   ! Humidity Indicating Conditions at Maximum Dry-Bulb {BasedOnField A3}
  98816,                                  ! Barometric Pressure {Pa}
  11.5,                                   ! Wind Speed {m/s}
  240,                                    ! Wind Direction {deg}
  0,                                      ! Sky Clearness
  0,                                      ! Rain Indicator
  0,                                      ! Snow Indicator
  21,                                     ! Day of Month
  1,                                      ! Month
  WinterDesignDay,                        ! Day Type
  0,                                      ! Daylight Saving Time Indicator
  Wetbulb,                                ! Humidity Indicating Type
  ,                                       ! Humidity Indicating Day Schedule Name
  DefaultMultipliers,                     ! Dry-Bulb Temperature Range Modifier Type
  ,                                       ! Dry-Bulb Temperature Range Modifier Schedule Name
  ASHRAEClearSky;                         ! Solar Model Indicator

OS:ComponentData,
  {28da0e53-0a1d-410b-bdc4-e0c9fc554731}, ! Handle
  Component Data 1,                       ! Name
  {96b90fc6-7db8-4233-ada5-2dbdea31edbe}, ! UUID
  {d2a20016-3766-429b-a404-0a76c09d4a29}, ! Version UUID
  1366309850,                             ! Creation Timestamp
  1366309850,                             ! Version Timestamp
  {148420f0-f166-4350-be23-85f924facbf0}; ! Name of Object 1

