
OS:Version,
  {1695e2fc-70ad-410f-b7b3-2652241d7047}, ! Handle
  0.9.3;                                  ! Version Identifier

OS:SizingPeriod:DesignDay,
  {0154c243-58fc-4905-8941-6b98ff509268}, ! Handle
  Nacogdoches  Awos Ann Clg 2% Condns DB=>MWB, ! Name
  33.8,                                   ! Maximum Dry-Bulb Temperature {C}
  11.4,                                   ! Daily Dry-Bulb Temperature Range {deltaC}
  24.2,                                   ! Humidity Indicating Conditions at Maximum Dry-Bulb {BasedOnField A3}
  100034,                                 ! Barometric Pressure {Pa}
  3,                                      ! Wind Speed {m/s}
  200,                                    ! Wind Direction {deg}
  0,                                      ! Sky Clearness
  0,                                      ! Rain Indicator
  0,                                      ! Snow Indicator
  21,                                     ! Day of Month
  7,                                      ! Month
  SummerDesignDay,                        ! Day Type
  0,                                      ! Daylight Saving Time Indicator
  Wetbulb,                                ! Humidity Indicating Type
  ,                                       ! Humidity Indicating Day Schedule Name
  DefaultMultipliers,                     ! Dry-Bulb Temperature Range Modifier Type
  ,                                       ! Dry-Bulb Temperature Range Modifier Schedule Name
  ASHRAETau,                              ! Solar Model Indicator
  ,                                       ! Beam Solar Day Schedule Name
  ,                                       ! Diffuse Solar Day Schedule Name
  0.488,                                  ! ASHRAE Taub {dimensionless}
  2.012;                                  ! ASHRAE Taud {dimensionless}

OS:ComponentData,
  {f0a489c6-e8b8-431e-a2c4-860fd825f27d}, ! Handle
  Component Data 1,                       ! Name
  {d371663b-62ab-47e7-a3b6-003dfb6da2f4}, ! UUID
  {667ac2c9-7ae6-4da2-b472-de566f52a6d5}, ! Version UUID
  1366310840,                             ! Creation Timestamp
  1366310840,                             ! Version Timestamp
  {0154c243-58fc-4905-8941-6b98ff509268}; ! Name of Object 1

