
OS:Version,
  {4b7cfe83-d927-4bd0-a80f-96748697e9eb}, ! Handle
  0.9.3;                                  ! Version Identifier

OS:SizingPeriod:DesignDay,
  {25321c1a-474f-4ef0-8c47-72474c375c27}, ! Handle
  Scottsbluff Ann Clg .4% Condns WB=>MDB, ! Name
  30.2,                                   ! Maximum Dry-Bulb Temperature {C}
  16.6,                                   ! Daily Dry-Bulb Temperature Range {deltaC}
  20.9,                                   ! Humidity Indicating Conditions at Maximum Dry-Bulb {BasedOnField A3}
  87651,                                  ! Barometric Pressure {Pa}
  4.7,                                    ! Wind Speed {m/s}
  300,                                    ! Wind Direction {deg}
  0,                                      ! Sky Clearness
  0,                                      ! Rain Indicator
  0,                                      ! Snow Indicator
  21,                                     ! Day of Month
  7,                                      ! Month
  SummerDesignDay,                        ! Day Type
  0,                                      ! Daylight Saving Time Indicator
  Wetbulb,                                ! Humidity Indicating Type
  ,                                       ! Humidity Indicating Day Schedule Name
  DefaultMultipliers,                     ! Dry-Bulb Temperature Range Modifier Type
  ,                                       ! Dry-Bulb Temperature Range Modifier Schedule Name
  ASHRAETau,                              ! Solar Model Indicator
  ,                                       ! Beam Solar Day Schedule Name
  ,                                       ! Diffuse Solar Day Schedule Name
  0.434,                                  ! ASHRAE Taub {dimensionless}
  1.982;                                  ! ASHRAE Taud {dimensionless}

OS:ComponentData,
  {ec425c5f-cca3-40af-8a6f-11b933fd4f2a}, ! Handle
  Component Data 1,                       ! Name
  {33ac6e0a-3267-4bf1-8c66-d37bb110b570}, ! UUID
  {fee9e1bf-116a-482d-87cf-2ea4b7c7a72e}, ! Version UUID
  1366309190,                             ! Creation Timestamp
  1366309190,                             ! Version Timestamp
  {25321c1a-474f-4ef0-8c47-72474c375c27}; ! Name of Object 1

