
OS:Version,
  {37d3ea47-2581-40b0-b2ec-849d7f11a827}, ! Handle
  0.9.3;                                  ! Version Identifier

OS:SizingPeriod:DesignDay,
  {6786135d-7a53-4154-b9e1-0c681ea3c5f0}, ! Handle
  Newport News Ann Clg .4% Condns Enth=>MDB, ! Name
  32.4,                                   ! Maximum Dry-Bulb Temperature {C}
  9.9,                                    ! Daily Dry-Bulb Temperature Range {deltaC}
  82500,                                  ! Humidity Indicating Conditions at Maximum Dry-Bulb {BasedOnField A3}
  101169,                                 ! Barometric Pressure {Pa}
  4.6,                                    ! Wind Speed {m/s}
  240,                                    ! Wind Direction {deg}
  0,                                      ! Sky Clearness
  0,                                      ! Rain Indicator
  0,                                      ! Snow Indicator
  21,                                     ! Day of Month
  7,                                      ! Month
  SummerDesignDay,                        ! Day Type
  0,                                      ! Daylight Saving Time Indicator
  Enthalpy,                               ! Humidity Indicating Type
  ,                                       ! Humidity Indicating Day Schedule Name
  DefaultMultipliers,                     ! Dry-Bulb Temperature Range Modifier Type
  ,                                       ! Dry-Bulb Temperature Range Modifier Schedule Name
  ASHRAETau,                              ! Solar Model Indicator
  ,                                       ! Beam Solar Day Schedule Name
  ,                                       ! Diffuse Solar Day Schedule Name
  0.597,                                  ! ASHRAE Taub {dimensionless}
  1.679;                                  ! ASHRAE Taud {dimensionless}

OS:ComponentData,
  {5ccf8cb5-0f0c-405a-9aaa-334672b4b94b}, ! Handle
  Component Data 1,                       ! Name
  {20a8baf7-4bdc-4296-9851-6e376518cd3c}, ! UUID
  {45e3b74c-caa7-405d-a5a8-dded74295f8b}, ! Version UUID
  1366311119,                             ! Creation Timestamp
  1366311119,                             ! Version Timestamp
  {6786135d-7a53-4154-b9e1-0c681ea3c5f0}; ! Name of Object 1

