
OS:Version,
  {3569de4e-0d8c-4860-9212-f4a2b20986bc}, ! Handle
  0.9.3;                                  ! Version Identifier

OS:SizingPeriod:DesignDay,
  {026773f3-006e-4135-9e65-16b72e2b334d}, ! Handle
  Phoenix Sky Harbor Intl Ap Ann Clg .4% Condns WB=>MDB, ! Name
  35.8,                                   ! Maximum Dry-Bulb Temperature {C}
  12,                                     ! Daily Dry-Bulb Temperature Range {deltaC}
  24.5,                                   ! Humidity Indicating Conditions at Maximum Dry-Bulb {BasedOnField A3}
  97342,                                  ! Barometric Pressure {Pa}
  4.1,                                    ! Wind Speed {m/s}
  260,                                    ! Wind Direction {deg}
  0,                                      ! Sky Clearness
  0,                                      ! Rain Indicator
  0,                                      ! Snow Indicator
  21,                                     ! Day of Month
  7,                                      ! Month
  SummerDesignDay,                        ! Day Type
  0,                                      ! Daylight Saving Time Indicator
  Wetbulb,                                ! Humidity Indicating Type
  ,                                       ! Humidity Indicating Day Schedule Name
  DefaultMultipliers,                     ! Dry-Bulb Temperature Range Modifier Type
  ,                                       ! Dry-Bulb Temperature Range Modifier Schedule Name
  ASHRAETau,                              ! Solar Model Indicator
  ,                                       ! Beam Solar Day Schedule Name
  ,                                       ! Diffuse Solar Day Schedule Name
  0.588,                                  ! ASHRAE Taub {dimensionless}
  1.653;                                  ! ASHRAE Taud {dimensionless}

OS:ComponentData,
  {020c762b-170e-4ff1-b6ff-fd24ff195389}, ! Handle
  Component Data 1,                       ! Name
  {0e3646da-311a-47f9-852f-36f1c1027f52}, ! UUID
  {272ee11f-a6d7-436b-852b-b224343b56f7}, ! Version UUID
  1366306295,                             ! Creation Timestamp
  1366306295,                             ! Version Timestamp
  {026773f3-006e-4135-9e65-16b72e2b334d}; ! Name of Object 1

