
OS:Version,
  {69d94278-96db-47f3-9276-7ad6b35b506f}, ! Handle
  0.9.3;                                  ! Version Identifier

OS:SizingPeriod:DesignDay,
  {85319689-72a5-44ba-a06d-ab744ab45bc7}, ! Handle
  Olympia Ann Clg 1% Condns DP=>MDB,      ! Name
  21,                                     ! Maximum Dry-Bulb Temperature {C}
  14.6,                                   ! Daily Dry-Bulb Temperature Range {deltaC}
  15.5,                                   ! Humidity Indicating Conditions at Maximum Dry-Bulb {BasedOnField A3}
  100594,                                 ! Barometric Pressure {Pa}
  3.4,                                    ! Wind Speed {m/s}
  20,                                     ! Wind Direction {deg}
  0,                                      ! Sky Clearness
  0,                                      ! Rain Indicator
  0,                                      ! Snow Indicator
  21,                                     ! Day of Month
  8,                                      ! Month
  SummerDesignDay,                        ! Day Type
  0,                                      ! Daylight Saving Time Indicator
  Dewpoint,                               ! Humidity Indicating Type
  ,                                       ! Humidity Indicating Day Schedule Name
  DefaultMultipliers,                     ! Dry-Bulb Temperature Range Modifier Type
  ,                                       ! Dry-Bulb Temperature Range Modifier Schedule Name
  ASHRAETau,                              ! Solar Model Indicator
  ,                                       ! Beam Solar Day Schedule Name
  ,                                       ! Diffuse Solar Day Schedule Name
  0.359,                                  ! ASHRAE Taub {dimensionless}
  2.536;                                  ! ASHRAE Taud {dimensionless}

OS:ComponentData,
  {7160a389-0ae2-4378-92a6-abe251f70c1e}, ! Handle
  Component Data 1,                       ! Name
  {577f808f-9b31-4f59-b0b4-d45d9fdfd58e}, ! UUID
  {b7b86a81-35c0-4658-86c1-f45a3141303a}, ! Version UUID
  1366311310,                             ! Creation Timestamp
  1366311310,                             ! Version Timestamp
  {85319689-72a5-44ba-a06d-ab744ab45bc7}; ! Name of Object 1

