
OS:Version,
  {27650f23-d2f7-4abd-8b5a-7e56ba7a56ce}, ! Handle
  0.9.3;                                  ! Version Identifier

OS:SizingPeriod:DesignDay,
  {faa6e5f1-fd60-4efb-834f-c782a7729c38}, ! Handle
  Victoria Regional Ap Ann Clg 1% Condns DP=>MDB, ! Name
  27.7,                                   ! Maximum Dry-Bulb Temperature {C}
  10.6,                                   ! Daily Dry-Bulb Temperature Range {deltaC}
  25.3,                                   ! Humidity Indicating Conditions at Maximum Dry-Bulb {BasedOnField A3}
  100905,                                 ! Barometric Pressure {Pa}
  4.9,                                    ! Wind Speed {m/s}
  170,                                    ! Wind Direction {deg}
  0,                                      ! Sky Clearness
  0,                                      ! Rain Indicator
  0,                                      ! Snow Indicator
  21,                                     ! Day of Month
  8,                                      ! Month
  SummerDesignDay,                        ! Day Type
  0,                                      ! Daylight Saving Time Indicator
  Dewpoint,                               ! Humidity Indicating Type
  ,                                       ! Humidity Indicating Day Schedule Name
  DefaultMultipliers,                     ! Dry-Bulb Temperature Range Modifier Type
  ,                                       ! Dry-Bulb Temperature Range Modifier Schedule Name
  ASHRAETau,                              ! Solar Model Indicator
  ,                                       ! Beam Solar Day Schedule Name
  ,                                       ! Diffuse Solar Day Schedule Name
  0.474,                                  ! ASHRAE Taub {dimensionless}
  2.062;                                  ! ASHRAE Taud {dimensionless}

OS:ComponentData,
  {c130c940-7765-48cf-ad34-94808b776018}, ! Handle
  Component Data 1,                       ! Name
  {c5fabb2a-00dc-49a6-9cd4-c804a8f23cb1}, ! UUID
  {3ac68517-a72e-40ad-bb8c-d1be9165bfa9}, ! Version UUID
  1366310913,                             ! Creation Timestamp
  1366310913,                             ! Version Timestamp
  {faa6e5f1-fd60-4efb-834f-c782a7729c38}; ! Name of Object 1

