
OS:Version,
  {9045dfc6-9bb9-4edb-ae88-947bbf7b6e47}, ! Handle
  0.9.3;                                  ! Version Identifier

OS:SizingPeriod:DesignDay,
  {5eaf8d12-9ab0-459c-b3f4-bacc972884ba}, ! Handle
  Republic Ann Clg 2% Condns Enth=>MDB,   ! Name
  26.5,                                   ! Maximum Dry-Bulb Temperature {C}
  8,                                      ! Daily Dry-Bulb Temperature Range {deltaC}
  70200,                                  ! Humidity Indicating Conditions at Maximum Dry-Bulb {BasedOnField A3}
  101013,                                 ! Barometric Pressure {Pa}
  5.5,                                    ! Wind Speed {m/s}
  210,                                    ! Wind Direction {deg}
  0,                                      ! Sky Clearness
  0,                                      ! Rain Indicator
  0,                                      ! Snow Indicator
  21,                                     ! Day of Month
  7,                                      ! Month
  SummerDesignDay,                        ! Day Type
  0,                                      ! Daylight Saving Time Indicator
  Enthalpy,                               ! Humidity Indicating Type
  ,                                       ! Humidity Indicating Day Schedule Name
  DefaultMultipliers,                     ! Dry-Bulb Temperature Range Modifier Type
  ,                                       ! Dry-Bulb Temperature Range Modifier Schedule Name
  ASHRAETau,                              ! Solar Model Indicator
  ,                                       ! Beam Solar Day Schedule Name
  ,                                       ! Diffuse Solar Day Schedule Name
  0.541,                                  ! ASHRAE Taub {dimensionless}
  1.799;                                  ! ASHRAE Taud {dimensionless}

OS:ComponentData,
  {f655792e-b164-48a5-9893-23ccbb7cc8b7}, ! Handle
  Component Data 1,                       ! Name
  {37e22733-9ab1-44b4-a9c2-0e0673db6124}, ! UUID
  {3fbaacef-8dea-480f-8df1-840793da6b04}, ! Version UUID
  1366309710,                             ! Creation Timestamp
  1366309710,                             ! Version Timestamp
  {5eaf8d12-9ab0-459c-b3f4-bacc972884ba}; ! Name of Object 1

