
OS:Version,
  {98b69f13-24b7-4b22-aabd-4d542b6eb326}, ! Handle
  0.9.3;                                  ! Version Identifier

OS:SizingPeriod:DesignDay,
  {7515c6ce-97d7-400d-b3fb-df7fe847749c}, ! Handle
  Sioux Falls Foss Field Ann Htg 99% Condns DB, ! Name
  -22.4,                                  ! Maximum Dry-Bulb Temperature {C}
  0,                                      ! Daily Dry-Bulb Temperature Range {deltaC}
  -22.4,                                  ! Humidity Indicating Conditions at Maximum Dry-Bulb {BasedOnField A3}
  96230,                                  ! Barometric Pressure {Pa}
  4.2,                                    ! Wind Speed {m/s}
  300,                                    ! Wind Direction {deg}
  0,                                      ! Sky Clearness
  0,                                      ! Rain Indicator
  0,                                      ! Snow Indicator
  21,                                     ! Day of Month
  1,                                      ! Month
  WinterDesignDay,                        ! Day Type
  0,                                      ! Daylight Saving Time Indicator
  Wetbulb,                                ! Humidity Indicating Type
  ,                                       ! Humidity Indicating Day Schedule Name
  DefaultMultipliers,                     ! Dry-Bulb Temperature Range Modifier Type
  ,                                       ! Dry-Bulb Temperature Range Modifier Schedule Name
  ASHRAEClearSky;                         ! Solar Model Indicator

OS:ComponentData,
  {762d4d72-40cb-4c22-88fc-48e41c3c52c6}, ! Handle
  Component Data 1,                       ! Name
  {a2a33f14-1240-49b2-bf90-3a19f4a86005}, ! UUID
  {a215ba48-219b-46ad-9204-06a53fb300af}, ! Version UUID
  1366310458,                             ! Creation Timestamp
  1366310458,                             ! Version Timestamp
  {7515c6ce-97d7-400d-b3fb-df7fe847749c}; ! Name of Object 1

