
OS:Version,
  {3294bfc5-cab2-4f82-ba2c-40958099e634}, ! Handle
  0.9.3;                                  ! Version Identifier

OS:SizingPeriod:DesignDay,
  {e38de07c-573d-473d-8db4-87e8565d9712}, ! Handle
  Reading Spaatz Field Ann Clg 1% Condns Enth=>MDB, ! Name
  29.3,                                   ! Maximum Dry-Bulb Temperature {C}
  10.9,                                   ! Daily Dry-Bulb Temperature Range {deltaC}
  73200,                                  ! Humidity Indicating Conditions at Maximum Dry-Bulb {BasedOnField A3}
  100082,                                 ! Barometric Pressure {Pa}
  4.5,                                    ! Wind Speed {m/s}
  270,                                    ! Wind Direction {deg}
  0,                                      ! Sky Clearness
  0,                                      ! Rain Indicator
  0,                                      ! Snow Indicator
  21,                                     ! Day of Month
  7,                                      ! Month
  SummerDesignDay,                        ! Day Type
  0,                                      ! Daylight Saving Time Indicator
  Enthalpy,                               ! Humidity Indicating Type
  ,                                       ! Humidity Indicating Day Schedule Name
  DefaultMultipliers,                     ! Dry-Bulb Temperature Range Modifier Type
  ,                                       ! Dry-Bulb Temperature Range Modifier Schedule Name
  ASHRAETau,                              ! Solar Model Indicator
  ,                                       ! Beam Solar Day Schedule Name
  ,                                       ! Diffuse Solar Day Schedule Name
  0.516,                                  ! ASHRAE Taub {dimensionless}
  1.849;                                  ! ASHRAE Taud {dimensionless}

OS:ComponentData,
  {4e95e8af-047c-4ea9-a379-296e4d839dbe}, ! Handle
  Component Data 1,                       ! Name
  {f8b091fe-7fee-46d3-90b5-a4652be2afbd}, ! UUID
  {8b692c74-cc06-49c6-babe-a974fcdc4692}, ! Version UUID
  1366310252,                             ! Creation Timestamp
  1366310252,                             ! Version Timestamp
  {e38de07c-573d-473d-8db4-87e8565d9712}; ! Name of Object 1

