
OS:Version,
  {9c6ca3ad-1bf1-48cf-bdad-151425b7f2e9}, ! Handle
  0.9.3;                                  ! Version Identifier

OS:SizingPeriod:DesignDay,
  {379d9071-a0e0-4ab2-8df3-1d391d99a9e8}, ! Handle
  Newport News Ann Htg Wind 99.6% Condns WS=>MCDB, ! Name
  8.7,                                    ! Maximum Dry-Bulb Temperature {C}
  0,                                      ! Daily Dry-Bulb Temperature Range {deltaC}
  8.7,                                    ! Humidity Indicating Conditions at Maximum Dry-Bulb {BasedOnField A3}
  101169,                                 ! Barometric Pressure {Pa}
  10.1,                                   ! Wind Speed {m/s}
  350,                                    ! Wind Direction {deg}
  0,                                      ! Sky Clearness
  0,                                      ! Rain Indicator
  0,                                      ! Snow Indicator
  21,                                     ! Day of Month
  1,                                      ! Month
  WinterDesignDay,                        ! Day Type
  0,                                      ! Daylight Saving Time Indicator
  Wetbulb,                                ! Humidity Indicating Type
  ,                                       ! Humidity Indicating Day Schedule Name
  DefaultMultipliers,                     ! Dry-Bulb Temperature Range Modifier Type
  ,                                       ! Dry-Bulb Temperature Range Modifier Schedule Name
  ASHRAEClearSky;                         ! Solar Model Indicator

OS:ComponentData,
  {574088f4-5473-48c9-a53f-bdf95102526d}, ! Handle
  Component Data 1,                       ! Name
  {af2e3c68-8b91-479e-8b11-4dc0a93abf70}, ! UUID
  {3ec2a9ec-a54c-4cce-91af-88a37d696886}, ! Version UUID
  1366311116,                             ! Creation Timestamp
  1366311116,                             ! Version Timestamp
  {379d9071-a0e0-4ab2-8df3-1d391d99a9e8}; ! Name of Object 1

