
OS:Version,
  {e10ba82b-1035-4ce0-a6b3-c5b35cdf95c1}, ! Handle
  0.9.3;                                  ! Version Identifier

OS:SizingPeriod:DesignDay,
  {917218e9-2ee1-45f9-80b0-6797c97818ec}, ! Handle
  Portland Hillsboro Ann Clg 1% Condns Enth=>MDB, ! Name
  29.6,                                   ! Maximum Dry-Bulb Temperature {C}
  15.2,                                   ! Daily Dry-Bulb Temperature Range {deltaC}
  57800,                                  ! Humidity Indicating Conditions at Maximum Dry-Bulb {BasedOnField A3}
  100582,                                 ! Barometric Pressure {Pa}
  3.6,                                    ! Wind Speed {m/s}
  40,                                     ! Wind Direction {deg}
  0,                                      ! Sky Clearness
  0,                                      ! Rain Indicator
  0,                                      ! Snow Indicator
  21,                                     ! Day of Month
  8,                                      ! Month
  SummerDesignDay,                        ! Day Type
  0,                                      ! Daylight Saving Time Indicator
  Enthalpy,                               ! Humidity Indicating Type
  ,                                       ! Humidity Indicating Day Schedule Name
  DefaultMultipliers,                     ! Dry-Bulb Temperature Range Modifier Type
  ,                                       ! Dry-Bulb Temperature Range Modifier Schedule Name
  ASHRAETau,                              ! Solar Model Indicator
  ,                                       ! Beam Solar Day Schedule Name
  ,                                       ! Diffuse Solar Day Schedule Name
  0.356,                                  ! ASHRAE Taub {dimensionless}
  2.551;                                  ! ASHRAE Taud {dimensionless}

OS:ComponentData,
  {57f227de-2f77-475e-ae4a-3a0199ed3b85}, ! Handle
  Component Data 1,                       ! Name
  {d3fa3811-8592-437d-8fc9-4e0924e93bb2}, ! UUID
  {2507284b-5107-41cf-aa5d-8ba3287f6556}, ! Version UUID
  1366310069,                             ! Creation Timestamp
  1366310069,                             ! Version Timestamp
  {917218e9-2ee1-45f9-80b0-6797c97818ec}; ! Name of Object 1

