
OS:Version,
  {16eea089-5dc1-4dc6-a8a7-ebfc88374bb2}, ! Handle
  0.9.3;                                  ! Version Identifier

OS:SizingPeriod:DesignDay,
  {d979551f-b757-41ae-8646-cb5e724f531d}, ! Handle
  Wilkes-Barre/Scranton Ann Clg .4% Condns WB=>MDB, ! Name
  28.9,                                   ! Maximum Dry-Bulb Temperature {C}
  10.8,                                   ! Daily Dry-Bulb Temperature Range {deltaC}
  23.9,                                   ! Humidity Indicating Conditions at Maximum Dry-Bulb {BasedOnField A3}
  97901,                                  ! Barometric Pressure {Pa}
  4.5,                                    ! Wind Speed {m/s}
  240,                                    ! Wind Direction {deg}
  0,                                      ! Sky Clearness
  0,                                      ! Rain Indicator
  0,                                      ! Snow Indicator
  21,                                     ! Day of Month
  7,                                      ! Month
  SummerDesignDay,                        ! Day Type
  0,                                      ! Daylight Saving Time Indicator
  Wetbulb,                                ! Humidity Indicating Type
  ,                                       ! Humidity Indicating Day Schedule Name
  DefaultMultipliers,                     ! Dry-Bulb Temperature Range Modifier Type
  ,                                       ! Dry-Bulb Temperature Range Modifier Schedule Name
  ASHRAETau,                              ! Solar Model Indicator
  ,                                       ! Beam Solar Day Schedule Name
  ,                                       ! Diffuse Solar Day Schedule Name
  0.477,                                  ! ASHRAE Taub {dimensionless}
  1.945;                                  ! ASHRAE Taud {dimensionless}

OS:ComponentData,
  {e1bf81d2-1805-4c65-a99f-aa5683b83283}, ! Handle
  Component Data 1,                       ! Name
  {6ffd3d37-cc31-4d01-8a32-cee0ad397d27}, ! UUID
  {4e1a2fc8-1819-419f-9699-e9355b339909}, ! Version UUID
  1366310262,                             ! Creation Timestamp
  1366310262,                             ! Version Timestamp
  {d979551f-b757-41ae-8646-cb5e724f531d}; ! Name of Object 1

