
OS:Version,
  {0297dac9-4bdb-4a12-a8f3-7e1cd811dd47}, ! Handle
  0.9.3;                                  ! Version Identifier

OS:SizingPeriod:DesignDay,
  {e1213c50-d00b-4bd0-9f62-6d6de5582da1}, ! Handle
  Richmond International Ap Ann Clg 1% Condns DP=>MDB, ! Name
  27.7,                                   ! Maximum Dry-Bulb Temperature {C}
  10.4,                                   ! Daily Dry-Bulb Temperature Range {deltaC}
  23.8,                                   ! Humidity Indicating Conditions at Maximum Dry-Bulb {BasedOnField A3}
  100726,                                 ! Barometric Pressure {Pa}
  4.5,                                    ! Wind Speed {m/s}
  230,                                    ! Wind Direction {deg}
  0,                                      ! Sky Clearness
  0,                                      ! Rain Indicator
  0,                                      ! Snow Indicator
  21,                                     ! Day of Month
  7,                                      ! Month
  SummerDesignDay,                        ! Day Type
  0,                                      ! Daylight Saving Time Indicator
  Dewpoint,                               ! Humidity Indicating Type
  ,                                       ! Humidity Indicating Day Schedule Name
  DefaultMultipliers,                     ! Dry-Bulb Temperature Range Modifier Type
  ,                                       ! Dry-Bulb Temperature Range Modifier Schedule Name
  ASHRAETau,                              ! Solar Model Indicator
  ,                                       ! Beam Solar Day Schedule Name
  ,                                       ! Diffuse Solar Day Schedule Name
  0.567,                                  ! ASHRAE Taub {dimensionless}
  1.742;                                  ! ASHRAE Taud {dimensionless}

OS:ComponentData,
  {a20d305c-bfa3-48de-a7b1-0536494043cc}, ! Handle
  Component Data 1,                       ! Name
  {3fec671d-8024-44b6-a76b-e3cfa855be0a}, ! UUID
  {9b968bbb-99f1-4bbd-a607-d5003496fb27}, ! Version UUID
  1366311175,                             ! Creation Timestamp
  1366311175,                             ! Version Timestamp
  {e1213c50-d00b-4bd0-9f62-6d6de5582da1}; ! Name of Object 1

