
OS:Version,
  {56247ab1-9471-4459-bd81-02470bf731c8}, ! Handle
  0.9.3;                                  ! Version Identifier

OS:SizingPeriod:DesignDay,
  {fe1194f7-1238-4bca-821d-10c97229f67a}, ! Handle
  Whittier Ann Clg 1% Condns WB=>MDB,     ! Name
  18.9,                                   ! Maximum Dry-Bulb Temperature {C}
  5.4,                                    ! Daily Dry-Bulb Temperature Range {deltaC}
  14.8,                                   ! Humidity Indicating Conditions at Maximum Dry-Bulb {BasedOnField A3}
  101217,                                 ! Barometric Pressure {Pa}
  4.9,                                    ! Wind Speed {m/s}
  210,                                    ! Wind Direction {deg}
  0,                                      ! Sky Clearness
  0,                                      ! Rain Indicator
  0,                                      ! Snow Indicator
  21,                                     ! Day of Month
  7,                                      ! Month
  SummerDesignDay,                        ! Day Type
  0,                                      ! Daylight Saving Time Indicator
  Wetbulb,                                ! Humidity Indicating Type
  ,                                       ! Humidity Indicating Day Schedule Name
  DefaultMultipliers,                     ! Dry-Bulb Temperature Range Modifier Type
  ,                                       ! Dry-Bulb Temperature Range Modifier Schedule Name
  ASHRAETau,                              ! Solar Model Indicator
  ,                                       ! Beam Solar Day Schedule Name
  ,                                       ! Diffuse Solar Day Schedule Name
  0.407,                                  ! ASHRAE Taub {dimensionless}
  2.048;                                  ! ASHRAE Taud {dimensionless}

OS:ComponentData,
  {e51bd01f-6ed9-4f63-9a7a-68cdc2bab8e5}, ! Handle
  Component Data 1,                       ! Name
  {7ebe1d9e-190f-40d8-9882-cea66c23c12e}, ! UUID
  {9c5e649e-388b-43c4-9f65-dc81ddcd53d2}, ! Version UUID
  1366305612,                             ! Creation Timestamp
  1366305612,                             ! Version Timestamp
  {fe1194f7-1238-4bca-821d-10c97229f67a}; ! Name of Object 1

