
OS:Version,
  {16f8fb7e-fec6-4604-8ecb-4d57415aa44d}, ! Handle
  0.9.3;                                  ! Version Identifier

OS:SizingPeriod:DesignDay,
  {149c1b18-6eb3-45be-b2af-8e4ba47b23fe}, ! Handle
  Owatonna  Awos Ann Clg 2% Condns Enth=>MDB, ! Name
  26.5,                                   ! Maximum Dry-Bulb Temperature {C}
  10.6,                                   ! Daily Dry-Bulb Temperature Range {deltaC}
  71700,                                  ! Humidity Indicating Conditions at Maximum Dry-Bulb {BasedOnField A3}
  97190,                                  ! Barometric Pressure {Pa}
  5.6,                                    ! Wind Speed {m/s}
  170,                                    ! Wind Direction {deg}
  0,                                      ! Sky Clearness
  0,                                      ! Rain Indicator
  0,                                      ! Snow Indicator
  21,                                     ! Day of Month
  7,                                      ! Month
  SummerDesignDay,                        ! Day Type
  0,                                      ! Daylight Saving Time Indicator
  Enthalpy,                               ! Humidity Indicating Type
  ,                                       ! Humidity Indicating Day Schedule Name
  DefaultMultipliers,                     ! Dry-Bulb Temperature Range Modifier Type
  ,                                       ! Dry-Bulb Temperature Range Modifier Schedule Name
  ASHRAETau,                              ! Solar Model Indicator
  ,                                       ! Beam Solar Day Schedule Name
  ,                                       ! Diffuse Solar Day Schedule Name
  0.411,                                  ! ASHRAE Taub {dimensionless}
  2.201;                                  ! ASHRAE Taud {dimensionless}

