
OS:Version,
  {6713057d-41ad-473b-97fb-048fcf224cce}, ! Handle
  0.9.3;                                  ! Version Identifier

OS:SizingPeriod:DesignDay,
  {0f4e17d1-5e26-4ce8-a2a8-d5e60b4883f0}, ! Handle
  Paso Robles Municipal Arpt Ann Clg 2% Condns DP=>MDB, ! Name
  21.9,                                   ! Maximum Dry-Bulb Temperature {C}
  21,                                     ! Daily Dry-Bulb Temperature Range {deltaC}
  13.7,                                   ! Humidity Indicating Conditions at Maximum Dry-Bulb {BasedOnField A3}
  98428,                                  ! Barometric Pressure {Pa}
  4.4,                                    ! Wind Speed {m/s}
  310,                                    ! Wind Direction {deg}
  0,                                      ! Sky Clearness
  0,                                      ! Rain Indicator
  0,                                      ! Snow Indicator
  21,                                     ! Day of Month
  7,                                      ! Month
  SummerDesignDay,                        ! Day Type
  0,                                      ! Daylight Saving Time Indicator
  Dewpoint,                               ! Humidity Indicating Type
  ,                                       ! Humidity Indicating Day Schedule Name
  DefaultMultipliers,                     ! Dry-Bulb Temperature Range Modifier Type
  ,                                       ! Dry-Bulb Temperature Range Modifier Schedule Name
  ASHRAETau,                              ! Solar Model Indicator
  ,                                       ! Beam Solar Day Schedule Name
  ,                                       ! Diffuse Solar Day Schedule Name
  0.381,                                  ! ASHRAE Taub {dimensionless}
  2.343;                                  ! ASHRAE Taud {dimensionless}

OS:ComponentData,
  {a173409d-4c3c-4abb-97e8-acfe111b5f04}, ! Handle
  Component Data 1,                       ! Name
  {b088f4ab-e568-42bc-956f-699fcce6f019}, ! UUID
  {101a7dc8-e2e1-4949-9f0b-2807fc54b13c}, ! Version UUID
  1366306534,                             ! Creation Timestamp
  1366306534,                             ! Version Timestamp
  {0f4e17d1-5e26-4ce8-a2a8-d5e60b4883f0}; ! Name of Object 1

