
OS:Version,
  {79c89f6e-9794-49e0-a3af-1c281054de17}, ! Handle
  0.9.3;                                  ! Version Identifier

OS:SizingPeriod:DesignDay,
  {50a87234-06cf-4a79-afa5-e979ef551f7a}, ! Handle
  Mason City Municipal Arpt Ann Hum_n 99.6% Condns DP=>MCDB, ! Name
  -25,                                    ! Maximum Dry-Bulb Temperature {C}
  0,                                      ! Daily Dry-Bulb Temperature Range {deltaC}
  -29.7,                                  ! Humidity Indicating Conditions at Maximum Dry-Bulb {BasedOnField A3}
  97028,                                  ! Barometric Pressure {Pa}
  5,                                      ! Wind Speed {m/s}
  300,                                    ! Wind Direction {deg}
  0,                                      ! Sky Clearness
  0,                                      ! Rain Indicator
  0,                                      ! Snow Indicator
  21,                                     ! Day of Month
  1,                                      ! Month
  WinterDesignDay,                        ! Day Type
  0,                                      ! Daylight Saving Time Indicator
  Dewpoint,                               ! Humidity Indicating Type
  ,                                       ! Humidity Indicating Day Schedule Name
  DefaultMultipliers,                     ! Dry-Bulb Temperature Range Modifier Type
  ,                                       ! Dry-Bulb Temperature Range Modifier Schedule Name
  ASHRAEClearSky;                         ! Solar Model Indicator

OS:ComponentData,
  {e84f14ac-eec4-465f-a4c7-54a83d962b8e}, ! Handle
  Component Data 1,                       ! Name
  {ce82584f-5b52-49c0-b620-373f4068813b}, ! UUID
  {2b28c899-9048-4bd9-bde4-196f1c080aea}, ! Version UUID
  1366307216,                             ! Creation Timestamp
  1366307216,                             ! Version Timestamp
  {50a87234-06cf-4a79-afa5-e979ef551f7a}; ! Name of Object 1

