
OS:Version,
  {e16f2b85-506d-4233-b036-d47a03c8ba27}, ! Handle
  0.9.3;                                  ! Version Identifier

OS:SizingPeriod:DesignDay,
  {882dea4c-4582-4b47-9ec0-57f80f4ef3e6}, ! Handle
  Richmond International Ap Ann Hum_n 99% Condns DP=>MCDB, ! Name
  -3.3,                                   ! Maximum Dry-Bulb Temperature {C}
  0,                                      ! Daily Dry-Bulb Temperature Range {deltaC}
  -15.3,                                  ! Humidity Indicating Conditions at Maximum Dry-Bulb {BasedOnField A3}
  100726,                                 ! Barometric Pressure {Pa}
  3.4,                                    ! Wind Speed {m/s}
  0,                                      ! Wind Direction {deg}
  0,                                      ! Sky Clearness
  0,                                      ! Rain Indicator
  0,                                      ! Snow Indicator
  21,                                     ! Day of Month
  1,                                      ! Month
  WinterDesignDay,                        ! Day Type
  0,                                      ! Daylight Saving Time Indicator
  Dewpoint,                               ! Humidity Indicating Type
  ,                                       ! Humidity Indicating Day Schedule Name
  DefaultMultipliers,                     ! Dry-Bulb Temperature Range Modifier Type
  ,                                       ! Dry-Bulb Temperature Range Modifier Schedule Name
  ASHRAEClearSky;                         ! Solar Model Indicator

OS:ComponentData,
  {84675c6b-b3e8-4d44-b4f3-d374026abbee}, ! Handle
  Component Data 1,                       ! Name
  {b87ec4a5-6388-4ed1-a185-74c02d17c057}, ! UUID
  {d300bdfa-5d40-4795-a9c3-280c8c3007a1}, ! Version UUID
  1366311174,                             ! Creation Timestamp
  1366311174,                             ! Version Timestamp
  {882dea4c-4582-4b47-9ec0-57f80f4ef3e6}; ! Name of Object 1

