
OS:Version,
  {ba502cfa-55a8-4318-85d4-03e93239e949}, ! Handle
  0.9.3;                                  ! Version Identifier

OS:SizingPeriod:DesignDay,
  {2c15b828-4c8c-4e0b-8211-6ef609955c66}, ! Handle
  Omaha Eppley Airfield Ann Clg 2% Condns WB=>MDB, ! Name
  29.7,                                   ! Maximum Dry-Bulb Temperature {C}
  11,                                     ! Daily Dry-Bulb Temperature Range {deltaC}
  24.3,                                   ! Humidity Indicating Conditions at Maximum Dry-Bulb {BasedOnField A3}
  97784,                                  ! Barometric Pressure {Pa}
  6.1,                                    ! Wind Speed {m/s}
  180,                                    ! Wind Direction {deg}
  0,                                      ! Sky Clearness
  0,                                      ! Rain Indicator
  0,                                      ! Snow Indicator
  21,                                     ! Day of Month
  7,                                      ! Month
  SummerDesignDay,                        ! Day Type
  0,                                      ! Daylight Saving Time Indicator
  Wetbulb,                                ! Humidity Indicating Type
  ,                                       ! Humidity Indicating Day Schedule Name
  DefaultMultipliers,                     ! Dry-Bulb Temperature Range Modifier Type
  ,                                       ! Dry-Bulb Temperature Range Modifier Schedule Name
  ASHRAETau,                              ! Solar Model Indicator
  ,                                       ! Beam Solar Day Schedule Name
  ,                                       ! Diffuse Solar Day Schedule Name
  0.421,                                  ! ASHRAE Taub {dimensionless}
  2.196;                                  ! ASHRAE Taud {dimensionless}

OS:ComponentData,
  {91420d8a-f752-4c3b-b49c-6c5edf926441}, ! Handle
  Component Data 1,                       ! Name
  {5d6b1c49-b041-466c-8dd7-a36bdb244651}, ! UUID
  {531db769-df60-44cd-bd9d-63319a6ba349}, ! Version UUID
  1366309173,                             ! Creation Timestamp
  1366309173,                             ! Version Timestamp
  {2c15b828-4c8c-4e0b-8211-6ef609955c66}; ! Name of Object 1

