
OS:Version,
  {8ebd8863-173b-4c3f-bfc9-a14f9b259231}, ! Handle
  0.9.3;                                  ! Version Identifier

OS:SizingPeriod:DesignDay,
  {a7c144c8-33e2-45bd-b4c6-aeeaa112a0d3}, ! Handle
  Sherman-Denison Ann Htg 99% Condns DB,  ! Name
  -3,                                     ! Maximum Dry-Bulb Temperature {C}
  0,                                      ! Daily Dry-Bulb Temperature Range {deltaC}
  -3,                                     ! Humidity Indicating Conditions at Maximum Dry-Bulb {BasedOnField A3}
  98557,                                  ! Barometric Pressure {Pa}
  3.4,                                    ! Wind Speed {m/s}
  0,                                      ! Wind Direction {deg}
  0,                                      ! Sky Clearness
  0,                                      ! Rain Indicator
  0,                                      ! Snow Indicator
  21,                                     ! Day of Month
  12,                                     ! Month
  WinterDesignDay,                        ! Day Type
  0,                                      ! Daylight Saving Time Indicator
  Wetbulb,                                ! Humidity Indicating Type
  ,                                       ! Humidity Indicating Day Schedule Name
  DefaultMultipliers,                     ! Dry-Bulb Temperature Range Modifier Type
  ,                                       ! Dry-Bulb Temperature Range Modifier Schedule Name
  ASHRAEClearSky;                         ! Solar Model Indicator

OS:ComponentData,
  {eb4d2385-bf98-4fbd-8d33-17009a86ff1c}, ! Handle
  Component Data 1,                       ! Name
  {db1fbb6a-deb8-40c1-b71b-2befc58fc410}, ! UUID
  {5fc37339-36a7-4f1d-b750-7a33325bc340}, ! Version UUID
  1366310901,                             ! Creation Timestamp
  1366310901,                             ! Version Timestamp
  {a7c144c8-33e2-45bd-b4c6-aeeaa112a0d3}; ! Name of Object 1

