
OS:Version,
  {7988797f-05bd-4c61-b76b-88b9d06811c3}, ! Handle
  0.9.3;                                  ! Version Identifier

OS:SizingPeriod:DesignDay,
  {d9189c0a-7048-42e8-9f94-4774c812b676}, ! Handle
  Port Heiden Ann Clg 1% Condns WB=>MDB,  ! Name
  15.9,                                   ! Maximum Dry-Bulb Temperature {C}
  5.4,                                    ! Daily Dry-Bulb Temperature Range {deltaC}
  12.8,                                   ! Humidity Indicating Conditions at Maximum Dry-Bulb {BasedOnField A3}
  100977,                                 ! Barometric Pressure {Pa}
  7.3,                                    ! Wind Speed {m/s}
  150,                                    ! Wind Direction {deg}
  0,                                      ! Sky Clearness
  0,                                      ! Rain Indicator
  0,                                      ! Snow Indicator
  21,                                     ! Day of Month
  8,                                      ! Month
  SummerDesignDay,                        ! Day Type
  0,                                      ! Daylight Saving Time Indicator
  Wetbulb,                                ! Humidity Indicating Type
  ,                                       ! Humidity Indicating Day Schedule Name
  DefaultMultipliers,                     ! Dry-Bulb Temperature Range Modifier Type
  ,                                       ! Dry-Bulb Temperature Range Modifier Schedule Name
  ASHRAETau,                              ! Solar Model Indicator
  ,                                       ! Beam Solar Day Schedule Name
  ,                                       ! Diffuse Solar Day Schedule Name
  0.375,                                  ! ASHRAE Taub {dimensionless}
  2.3;                                    ! ASHRAE Taud {dimensionless}

OS:ComponentData,
  {7ff10936-5a3d-40ed-a7a3-4869e42cb09e}, ! Handle
  Component Data 1,                       ! Name
  {d7b31ec8-968a-47b8-b560-81f08a9bc35f}, ! UUID
  {66cdc22c-6fae-4f2c-8919-7be4f2521ad3}, ! Version UUID
  1366305503,                             ! Creation Timestamp
  1366305503,                             ! Version Timestamp
  {d9189c0a-7048-42e8-9f94-4774c812b676}; ! Name of Object 1

