
OS:Version,
  {f2aa8024-1f81-4247-acad-ca76b3b8a151}, ! Handle
  0.9.3;                                  ! Version Identifier

OS:SizingPeriod:DesignDay,
  {115307ef-e6fd-447f-9860-b19f1a151348}, ! Handle
  SCOTTSBLUFF Ann Htg 99.6% Condns DB,    ! Name
  -22.9,                                  ! Maximum Dry-Bulb Temperature {C}
  0,                                      ! Daily Dry-Bulb Temperature Range {deltaC}
  -22.9,                                  ! Humidity Indicating Conditions at Maximum Dry-Bulb {BasedOnField A3}
  87651,                                  ! Barometric Pressure {Pa}
  3.3,                                    ! Wind Speed {m/s}
  300,                                    ! Wind Direction {deg}
  0,                                      ! Sky Clearness
  0,                                      ! Rain Indicator
  0,                                      ! Snow Indicator
  21,                                     ! Day of Month
  12,                                     ! Month
  WinterDesignDay,                        ! Day Type
  0,                                      ! Daylight Saving Time Indicator
  Wetbulb,                                ! Humidity Indicating Type
  ,                                       ! Humidity Indicating Day Schedule Name
  DefaultMultipliers,                     ! Dry-Bulb Temperature Range Modifier Type
  ,                                       ! Dry-Bulb Temperature Range Modifier Schedule Name
  ASHRAEClearSky;                         ! Solar Model Indicator

OS:ComponentData,
  {329274c7-6a16-4d5a-954d-97ac97f7dea8}, ! Handle
  Component Data 1,                       ! Name
  {af00d9aa-dfb0-4761-984a-4760519bf19d}, ! UUID
  {654b6508-e1a3-4881-898c-797c461e458f}, ! Version UUID
  1366309197,                             ! Creation Timestamp
  1366309197,                             ! Version Timestamp
  {115307ef-e6fd-447f-9860-b19f1a151348}; ! Name of Object 1

