
OS:Version,
  {1ccabe79-23e3-4c66-a6c1-152d9abfdb9f}, ! Handle
  0.9.3;                                  ! Version Identifier

OS:SizingPeriod:DesignDay,
  {595a9eef-0ff1-4612-a81d-17245069e57e}, ! Handle
  Santa Maria Ann Htg Wind 99.6% Condns WS=>MCDB, ! Name
  14,                                     ! Maximum Dry-Bulb Temperature {C}
  0,                                      ! Daily Dry-Bulb Temperature Range {deltaC}
  14,                                     ! Humidity Indicating Conditions at Maximum Dry-Bulb {BasedOnField A3}
  100451,                                 ! Barometric Pressure {Pa}
  11,                                     ! Wind Speed {m/s}
  120,                                    ! Wind Direction {deg}
  0,                                      ! Sky Clearness
  0,                                      ! Rain Indicator
  0,                                      ! Snow Indicator
  21,                                     ! Day of Month
  12,                                     ! Month
  WinterDesignDay,                        ! Day Type
  0,                                      ! Daylight Saving Time Indicator
  Wetbulb,                                ! Humidity Indicating Type
  ,                                       ! Humidity Indicating Day Schedule Name
  DefaultMultipliers,                     ! Dry-Bulb Temperature Range Modifier Type
  ,                                       ! Dry-Bulb Temperature Range Modifier Schedule Name
  ASHRAEClearSky;                         ! Solar Model Indicator

OS:ComponentData,
  {57e3775d-bbfb-4f78-b6ae-3e3072e7f192}, ! Handle
  Component Data 1,                       ! Name
  {78a1f33c-4806-4192-b5fe-096bed98f678}, ! UUID
  {5048a4f5-b571-4455-8668-5c6c1ac31a0f}, ! Version UUID
  1366306612,                             ! Creation Timestamp
  1366306612,                             ! Version Timestamp
  {595a9eef-0ff1-4612-a81d-17245069e57e}; ! Name of Object 1

