
OS:Version,
  {05786e6a-639e-4b2e-aa7b-d5e3697967ab}, ! Handle
  0.9.3;                                  ! Version Identifier

OS:SizingPeriod:DesignDay,
  {d0f31eb5-a78c-4462-ae99-e1ace1ad6a22}, ! Handle
  Pasco Ann Clg 1% Condns DP=>MDB,        ! Name
  25.6,                                   ! Maximum Dry-Bulb Temperature {C}
  17.8,                                   ! Daily Dry-Bulb Temperature Range {deltaC}
  17.1,                                   ! Humidity Indicating Conditions at Maximum Dry-Bulb {BasedOnField A3}
  99702,                                  ! Barometric Pressure {Pa}
  3.1,                                    ! Wind Speed {m/s}
  330,                                    ! Wind Direction {deg}
  0,                                      ! Sky Clearness
  0,                                      ! Rain Indicator
  0,                                      ! Snow Indicator
  21,                                     ! Day of Month
  7,                                      ! Month
  SummerDesignDay,                        ! Day Type
  0,                                      ! Daylight Saving Time Indicator
  Dewpoint,                               ! Humidity Indicating Type
  ,                                       ! Humidity Indicating Day Schedule Name
  DefaultMultipliers,                     ! Dry-Bulb Temperature Range Modifier Type
  ,                                       ! Dry-Bulb Temperature Range Modifier Schedule Name
  ASHRAETau,                              ! Solar Model Indicator
  ,                                       ! Beam Solar Day Schedule Name
  ,                                       ! Diffuse Solar Day Schedule Name
  0.398,                                  ! ASHRAE Taub {dimensionless}
  2.219;                                  ! ASHRAE Taud {dimensionless}

OS:ComponentData,
  {288b387b-bace-4106-bf0d-ba148e35e811}, ! Handle
  Component Data 1,                       ! Name
  {dcdf19bd-05a5-41eb-ad2d-70715775a003}, ! UUID
  {bcb1923e-058e-4d85-a907-dcc479d05869}, ! Version UUID
  1366311320,                             ! Creation Timestamp
  1366311320,                             ! Version Timestamp
  {d0f31eb5-a78c-4462-ae99-e1ace1ad6a22}; ! Name of Object 1

