
OS:Version,
  {176f0765-1eba-403c-9b88-3d1d054ce780}, ! Handle
  0.9.3;                                  ! Version Identifier

OS:SizingPeriod:DesignDay,
  {6d62a083-714d-4832-ba60-681d259e4415}, ! Handle
  Nashville International Ap Ann Htg Wind 99% Condns WS=>MCDB, ! Name
  9.1,                                    ! Maximum Dry-Bulb Temperature {C}
  0,                                      ! Daily Dry-Bulb Temperature Range {deltaC}
  9.1,                                    ! Humidity Indicating Conditions at Maximum Dry-Bulb {BasedOnField A3}
  99217,                                  ! Barometric Pressure {Pa}
  9.3,                                    ! Wind Speed {m/s}
  0,                                      ! Wind Direction {deg}
  0,                                      ! Sky Clearness
  0,                                      ! Rain Indicator
  0,                                      ! Snow Indicator
  21,                                     ! Day of Month
  1,                                      ! Month
  WinterDesignDay,                        ! Day Type
  0,                                      ! Daylight Saving Time Indicator
  Wetbulb,                                ! Humidity Indicating Type
  ,                                       ! Humidity Indicating Day Schedule Name
  DefaultMultipliers,                     ! Dry-Bulb Temperature Range Modifier Type
  ,                                       ! Dry-Bulb Temperature Range Modifier Schedule Name
  ASHRAEClearSky;                         ! Solar Model Indicator

OS:ComponentData,
  {bab2e139-58c0-411c-bf0e-0fe033515808}, ! Handle
  Component Data 1,                       ! Name
  {15508a99-9cfd-43cf-9d4c-5d127f55b882}, ! UUID
  {10a60e66-baae-44ff-af84-ed872cedb661}, ! Version UUID
  1366310542,                             ! Creation Timestamp
  1366310542,                             ! Version Timestamp
  {6d62a083-714d-4832-ba60-681d259e4415}; ! Name of Object 1

