
OS:Version,
  {eda9fffc-9853-4403-9b89-0cf1ad520218}, ! Handle
  0.9.3;                                  ! Version Identifier

OS:SizingPeriod:DesignDay,
  {e551d438-2297-4266-89a3-dc1b38f62829}, ! Handle
  WATERLOO Ann Clg 1% Condns Enth=>MDB,   ! Name
  29.6,                                   ! Maximum Dry-Bulb Temperature {C}
  11.2,                                   ! Daily Dry-Bulb Temperature Range {deltaC}
  76700,                                  ! Humidity Indicating Conditions at Maximum Dry-Bulb {BasedOnField A3}
  98182,                                  ! Barometric Pressure {Pa}
  5.5,                                    ! Wind Speed {m/s}
  190,                                    ! Wind Direction {deg}
  0,                                      ! Sky Clearness
  0,                                      ! Rain Indicator
  0,                                      ! Snow Indicator
  21,                                     ! Day of Month
  7,                                      ! Month
  SummerDesignDay,                        ! Day Type
  0,                                      ! Daylight Saving Time Indicator
  Enthalpy,                               ! Humidity Indicating Type
  ,                                       ! Humidity Indicating Day Schedule Name
  DefaultMultipliers,                     ! Dry-Bulb Temperature Range Modifier Type
  ,                                       ! Dry-Bulb Temperature Range Modifier Schedule Name
  ASHRAETau,                              ! Solar Model Indicator
  ,                                       ! Beam Solar Day Schedule Name
  ,                                       ! Diffuse Solar Day Schedule Name
  0.427,                                  ! ASHRAE Taub {dimensionless}
  2.147;                                  ! ASHRAE Taud {dimensionless}

OS:ComponentData,
  {ab874be7-fd59-40dc-a043-c5643f620245}, ! Handle
  Component Data 1,                       ! Name
  {de5b4514-b127-464f-ad65-dc97052ae7f1}, ! UUID
  {f727f3ca-d937-4bb5-9641-ebc20637d397}, ! Version UUID
  1366307253,                             ! Creation Timestamp
  1366307253,                             ! Version Timestamp
  {e551d438-2297-4266-89a3-dc1b38f62829}; ! Name of Object 1

