
OS:Version,
  {8bbc135c-255d-44e2-9b4b-bc083607a757}, ! Handle
  0.9.3;                                  ! Version Identifier

OS:SizingPeriod:DesignDay,
  {0c526f86-ca85-490a-a70f-f8fab1a3dd8e}, ! Handle
  Manhattan Rgnl Ann Clg 1% Condns DP=>MDB, ! Name
  28.7,                                   ! Maximum Dry-Bulb Temperature {C}
  12.8,                                   ! Daily Dry-Bulb Temperature Range {deltaC}
  22.9,                                   ! Humidity Indicating Conditions at Maximum Dry-Bulb {BasedOnField A3}
  97423,                                  ! Barometric Pressure {Pa}
  5.3,                                    ! Wind Speed {m/s}
  200,                                    ! Wind Direction {deg}
  0,                                      ! Sky Clearness
  0,                                      ! Rain Indicator
  0,                                      ! Snow Indicator
  21,                                     ! Day of Month
  7,                                      ! Month
  SummerDesignDay,                        ! Day Type
  0,                                      ! Daylight Saving Time Indicator
  Dewpoint,                               ! Humidity Indicating Type
  ,                                       ! Humidity Indicating Day Schedule Name
  DefaultMultipliers,                     ! Dry-Bulb Temperature Range Modifier Type
  ,                                       ! Dry-Bulb Temperature Range Modifier Schedule Name
  ASHRAETau,                              ! Solar Model Indicator
  ,                                       ! Beam Solar Day Schedule Name
  ,                                       ! Diffuse Solar Day Schedule Name
  0.424,                                  ! ASHRAE Taub {dimensionless}
  2.192;                                  ! ASHRAE Taud {dimensionless}

OS:ComponentData,
  {b3cd72e2-72ec-4634-b92c-e5626da28303}, ! Handle
  Component Data 1,                       ! Name
  {00aa98ae-0b3b-4a29-987e-404ace5d1958}, ! UUID
  {d4c64603-666c-4339-862b-8dc1ff75c6ff}, ! Version UUID
  1366307559,                             ! Creation Timestamp
  1366307559,                             ! Version Timestamp
  {0c526f86-ca85-490a-a70f-f8fab1a3dd8e}; ! Name of Object 1

