
OS:Version,
  {e1c4699f-6132-43f2-8e4c-81c81463b275}, ! Handle
  0.9.3;                                  ! Version Identifier

OS:SizingPeriod:DesignDay,
  {62ef4c34-eac2-45c4-b2de-0d362c45da71}, ! Handle
  Yuma Mcas Ann Htg Wind 99% Condns WS=>MCDB, ! Name
  15,                                     ! Maximum Dry-Bulb Temperature {C}
  0,                                      ! Daily Dry-Bulb Temperature Range {deltaC}
  15,                                     ! Humidity Indicating Conditions at Maximum Dry-Bulb {BasedOnField A3}
  100547,                                 ! Barometric Pressure {Pa}
  9.3,                                    ! Wind Speed {m/s}
  30,                                     ! Wind Direction {deg}
  0,                                      ! Sky Clearness
  0,                                      ! Rain Indicator
  0,                                      ! Snow Indicator
  21,                                     ! Day of Month
  12,                                     ! Month
  WinterDesignDay,                        ! Day Type
  0,                                      ! Daylight Saving Time Indicator
  Wetbulb,                                ! Humidity Indicating Type
  ,                                       ! Humidity Indicating Day Schedule Name
  DefaultMultipliers,                     ! Dry-Bulb Temperature Range Modifier Type
  ,                                       ! Dry-Bulb Temperature Range Modifier Schedule Name
  ASHRAEClearSky;                         ! Solar Model Indicator

OS:ComponentData,
  {cc9d4de5-08d5-4246-bef5-d57b22a211fc}, ! Handle
  Component Data 1,                       ! Name
  {4ccb3907-5112-4d5f-ab04-29afce505228}, ! UUID
  {023e21e4-e9d5-44c7-b78f-5c7aeb788b19}, ! Version UUID
  1366306340,                             ! Creation Timestamp
  1366306340,                             ! Version Timestamp
  {62ef4c34-eac2-45c4-b2de-0d362c45da71}; ! Name of Object 1

