
OS:Version,
  {f2549791-7f22-468b-b948-2097eeb9df87}, ! Handle
  0.9.3;                                  ! Version Identifier

OS:SizingPeriod:DesignDay,
  {5c183e44-1cfb-443d-a511-746727b40b86}, ! Handle
  South Bend Michiana Rgnl Ap Ann Clg 1% Condns DB=>MWB, ! Name
  31.2,                                   ! Maximum Dry-Bulb Temperature {C}
  10.4,                                   ! Daily Dry-Bulb Temperature Range {deltaC}
  22.6,                                   ! Humidity Indicating Conditions at Maximum Dry-Bulb {BasedOnField A3}
  98522,                                  ! Barometric Pressure {Pa}
  5.2,                                    ! Wind Speed {m/s}
  220,                                    ! Wind Direction {deg}
  0,                                      ! Sky Clearness
  0,                                      ! Rain Indicator
  0,                                      ! Snow Indicator
  21,                                     ! Day of Month
  7,                                      ! Month
  SummerDesignDay,                        ! Day Type
  0,                                      ! Daylight Saving Time Indicator
  Wetbulb,                                ! Humidity Indicating Type
  ,                                       ! Humidity Indicating Day Schedule Name
  DefaultMultipliers,                     ! Dry-Bulb Temperature Range Modifier Type
  ,                                       ! Dry-Bulb Temperature Range Modifier Schedule Name
  ASHRAETau,                              ! Solar Model Indicator
  ,                                       ! Beam Solar Day Schedule Name
  ,                                       ! Diffuse Solar Day Schedule Name
  0.433,                                  ! ASHRAE Taub {dimensionless}
  2.144;                                  ! ASHRAE Taud {dimensionless}

OS:ComponentData,
  {be22a683-0b75-423a-ad8b-4531e4fb390a}, ! Handle
  Component Data 1,                       ! Name
  {adb4cd73-cbb2-4907-92ac-75730ae1f19c}, ! UUID
  {7f750ab2-a96c-4a52-bf4c-e3d7059e4e7d}, ! Version UUID
  1366307483,                             ! Creation Timestamp
  1366307483,                             ! Version Timestamp
  {5c183e44-1cfb-443d-a511-746727b40b86}; ! Name of Object 1

