
OS:Version,
  {6546b849-9193-41e0-84ac-9e3b2ecfe4bd}, ! Handle
  0.9.3;                                  ! Version Identifier

OS:SizingPeriod:DesignDay,
  {bca66d41-c9f4-4a78-a967-00d2d4748fa6}, ! Handle
  San Antonio Kelly Field Afb Ann Clg 1% Condns WB=>MDB, ! Name
  30.4,                                   ! Maximum Dry-Bulb Temperature {C}
  11.7,                                   ! Daily Dry-Bulb Temperature Range {deltaC}
  25.8,                                   ! Humidity Indicating Conditions at Maximum Dry-Bulb {BasedOnField A3}
  98851,                                  ! Barometric Pressure {Pa}
  4,                                      ! Wind Speed {m/s}
  150,                                    ! Wind Direction {deg}
  0,                                      ! Sky Clearness
  0,                                      ! Rain Indicator
  0,                                      ! Snow Indicator
  21,                                     ! Day of Month
  8,                                      ! Month
  SummerDesignDay,                        ! Day Type
  0,                                      ! Daylight Saving Time Indicator
  Wetbulb,                                ! Humidity Indicating Type
  ,                                       ! Humidity Indicating Day Schedule Name
  DefaultMultipliers,                     ! Dry-Bulb Temperature Range Modifier Type
  ,                                       ! Dry-Bulb Temperature Range Modifier Schedule Name
  ASHRAETau,                              ! Solar Model Indicator
  ,                                       ! Beam Solar Day Schedule Name
  ,                                       ! Diffuse Solar Day Schedule Name
  0.451,                                  ! ASHRAE Taub {dimensionless}
  2.14;                                   ! ASHRAE Taud {dimensionless}

OS:ComponentData,
  {1bf24b66-9168-4ee8-b431-e25614c201c5}, ! Handle
  Component Data 1,                       ! Name
  {777d89b5-235d-4bfa-87f7-846f711e7f41}, ! UUID
  {61ca289a-e2be-4ccc-816f-04f34d48ef82}, ! Version UUID
  1366310882,                             ! Creation Timestamp
  1366310882,                             ! Version Timestamp
  {bca66d41-c9f4-4a78-a967-00d2d4748fa6}; ! Name of Object 1

