
OS:Version,
  {280f45f1-0d46-4ffe-ac62-1d1327a61678}, ! Handle
  0.9.3;                                  ! Version Identifier

OS:SizingPeriod:DesignDay,
  {b961c19c-9515-4d77-a921-b9e5c6b8f996}, ! Handle
  Whiteman Afb Ann Htg 99.6% Condns DB,   ! Name
  -16.9,                                  ! Maximum Dry-Bulb Temperature {C}
  0,                                      ! Daily Dry-Bulb Temperature Range {deltaC}
  -16.9,                                  ! Humidity Indicating Conditions at Maximum Dry-Bulb {BasedOnField A3}
  98299,                                  ! Barometric Pressure {Pa}
  4.1,                                    ! Wind Speed {m/s}
  350,                                    ! Wind Direction {deg}
  0,                                      ! Sky Clearness
  0,                                      ! Rain Indicator
  0,                                      ! Snow Indicator
  21,                                     ! Day of Month
  1,                                      ! Month
  WinterDesignDay,                        ! Day Type
  0,                                      ! Daylight Saving Time Indicator
  Wetbulb,                                ! Humidity Indicating Type
  ,                                       ! Humidity Indicating Day Schedule Name
  DefaultMultipliers,                     ! Dry-Bulb Temperature Range Modifier Type
  ,                                       ! Dry-Bulb Temperature Range Modifier Schedule Name
  ASHRAEClearSky;                         ! Solar Model Indicator

OS:ComponentData,
  {158e7452-9007-4a53-b56e-82e0586da53d}, ! Handle
  Component Data 1,                       ! Name
  {c72bd7c4-dda1-4964-b0ab-228b55e59e8f}, ! UUID
  {50cb2a30-15c3-4e19-8573-3de21b3af891}, ! Version UUID
  1366308600,                             ! Creation Timestamp
  1366308600,                             ! Version Timestamp
  {b961c19c-9515-4d77-a921-b9e5c6b8f996}; ! Name of Object 1

