
OS:Version,
  {7cb11547-1b37-4bd2-8ebc-3314e80c112e}, ! Handle
  0.9.3;                                  ! Version Identifier

OS:SizingPeriod:DesignDay,
  {5e626dc5-6ebe-4bc4-bcda-dd8af7396c1a}, ! Handle
  Vance Afb Ann Clg .4% Condns DB=>MWB,   ! Name
  38.1,                                   ! Maximum Dry-Bulb Temperature {C}
  12.3,                                   ! Daily Dry-Bulb Temperature Range {deltaC}
  23,                                     ! Humidity Indicating Conditions at Maximum Dry-Bulb {BasedOnField A3}
  96519,                                  ! Barometric Pressure {Pa}
  5.5,                                    ! Wind Speed {m/s}
  190,                                    ! Wind Direction {deg}
  0,                                      ! Sky Clearness
  0,                                      ! Rain Indicator
  0,                                      ! Snow Indicator
  21,                                     ! Day of Month
  7,                                      ! Month
  SummerDesignDay,                        ! Day Type
  0,                                      ! Daylight Saving Time Indicator
  Wetbulb,                                ! Humidity Indicating Type
  ,                                       ! Humidity Indicating Day Schedule Name
  DefaultMultipliers,                     ! Dry-Bulb Temperature Range Modifier Type
  ,                                       ! Dry-Bulb Temperature Range Modifier Schedule Name
  ASHRAETau,                              ! Solar Model Indicator
  ,                                       ! Beam Solar Day Schedule Name
  ,                                       ! Diffuse Solar Day Schedule Name
  0.425,                                  ! ASHRAE Taub {dimensionless}
  2.194;                                  ! ASHRAE Taud {dimensionless}

OS:ComponentData,
  {329daa91-f439-446e-a6b4-fcba38b753b1}, ! Handle
  Component Data 1,                       ! Name
  {df5d54e3-8285-446c-97e7-8c7f504d1e9c}, ! UUID
  {0caaeede-525d-4d42-8d42-ebcbcaae34df}, ! Version UUID
  1366309962,                             ! Creation Timestamp
  1366309962,                             ! Version Timestamp
  {5e626dc5-6ebe-4bc4-bcda-dd8af7396c1a}; ! Name of Object 1

