
OS:Version,
  {fa3baf26-fec3-43d2-9727-37326400251b}, ! Handle
  0.9.3;                                  ! Version Identifier

OS:SizingPeriod:DesignDay,
  {e6498b98-707a-496f-a3c5-b50a70110cbe}, ! Handle
  Mountain View Moffett Fld Nas Ann Clg 2% Condns DP=>MDB, ! Name
  22.1,                                   ! Maximum Dry-Bulb Temperature {C}
  9.5,                                    ! Daily Dry-Bulb Temperature Range {deltaC}
  16,                                     ! Humidity Indicating Conditions at Maximum Dry-Bulb {BasedOnField A3}
  101181,                                 ! Barometric Pressure {Pa}
  3.9,                                    ! Wind Speed {m/s}
  340,                                    ! Wind Direction {deg}
  0,                                      ! Sky Clearness
  0,                                      ! Rain Indicator
  0,                                      ! Snow Indicator
  21,                                     ! Day of Month
  7,                                      ! Month
  SummerDesignDay,                        ! Day Type
  0,                                      ! Daylight Saving Time Indicator
  Dewpoint,                               ! Humidity Indicating Type
  ,                                       ! Humidity Indicating Day Schedule Name
  DefaultMultipliers,                     ! Dry-Bulb Temperature Range Modifier Type
  ,                                       ! Dry-Bulb Temperature Range Modifier Schedule Name
  ASHRAETau,                              ! Solar Model Indicator
  ,                                       ! Beam Solar Day Schedule Name
  ,                                       ! Diffuse Solar Day Schedule Name
  0.378,                                  ! ASHRAE Taub {dimensionless}
  2.37;                                   ! ASHRAE Taud {dimensionless}

OS:ComponentData,
  {6a87d5ec-a8d9-40ff-8798-03e830c39973}, ! Handle
  Component Data 1,                       ! Name
  {0b0d1e40-b931-42ff-8524-c842c34a7f1a}, ! UUID
  {b88befcc-17d8-45de-8e5f-9dbfb2b57d17}, ! Version UUID
  1366306514,                             ! Creation Timestamp
  1366306514,                             ! Version Timestamp
  {e6498b98-707a-496f-a3c5-b50a70110cbe}; ! Name of Object 1

