
OS:Version,
  {9c1ed4e4-6a49-4039-a83d-0086519e3954}, ! Handle
  0.9.3;                                  ! Version Identifier

OS:SizingPeriod:DesignDay,
  {42082bd6-8f5f-4a80-a81c-e6f6ad603fa4}, ! Handle
  Millville Municipal Ap Ann Clg 2% Condns DP=>MDB, ! Name
  26.3,                                   ! Maximum Dry-Bulb Temperature {C}
  10.4,                                   ! Daily Dry-Bulb Temperature Range {deltaC}
  22.9,                                   ! Humidity Indicating Conditions at Maximum Dry-Bulb {BasedOnField A3}
  101073,                                 ! Barometric Pressure {Pa}
  4.6,                                    ! Wind Speed {m/s}
  270,                                    ! Wind Direction {deg}
  0,                                      ! Sky Clearness
  0,                                      ! Rain Indicator
  0,                                      ! Snow Indicator
  21,                                     ! Day of Month
  7,                                      ! Month
  SummerDesignDay,                        ! Day Type
  0,                                      ! Daylight Saving Time Indicator
  Dewpoint,                               ! Humidity Indicating Type
  ,                                       ! Humidity Indicating Day Schedule Name
  DefaultMultipliers,                     ! Dry-Bulb Temperature Range Modifier Type
  ,                                       ! Dry-Bulb Temperature Range Modifier Schedule Name
  ASHRAETau,                              ! Solar Model Indicator
  ,                                       ! Beam Solar Day Schedule Name
  ,                                       ! Diffuse Solar Day Schedule Name
  0.564,                                  ! ASHRAE Taub {dimensionless}
  1.747;                                  ! ASHRAE Taud {dimensionless}

OS:ComponentData,
  {a99801a4-c199-4b60-b0d4-f6d327d0aeb6}, ! Handle
  Component Data 1,                       ! Name
  {a8e7b48c-7b34-47ea-b254-791092a71fac}, ! UUID
  {ddf34cf2-a3fc-49f4-873c-c5f2697e163b}, ! Version UUID
  1366309319,                             ! Creation Timestamp
  1366309319,                             ! Version Timestamp
  {42082bd6-8f5f-4a80-a81c-e6f6ad603fa4}; ! Name of Object 1

