
OS:Version,
  {a9020365-3b82-41de-b85f-a98a63cf7629}, ! Handle
  0.9.3;                                  ! Version Identifier

OS:SizingPeriod:DesignDay,
  {4816ff2d-49f8-41cc-93e9-182d77f209d4}, ! Handle
  Toledo Ann Clg 2% Condns DB=>MWB,       ! Name
  29.8,                                   ! Maximum Dry-Bulb Temperature {C}
  11.5,                                   ! Daily Dry-Bulb Temperature Range {deltaC}
  21.9,                                   ! Humidity Indicating Conditions at Maximum Dry-Bulb {BasedOnField A3}
  98816,                                  ! Barometric Pressure {Pa}
  4.8,                                    ! Wind Speed {m/s}
  230,                                    ! Wind Direction {deg}
  0,                                      ! Sky Clearness
  0,                                      ! Rain Indicator
  0,                                      ! Snow Indicator
  21,                                     ! Day of Month
  7,                                      ! Month
  SummerDesignDay,                        ! Day Type
  0,                                      ! Daylight Saving Time Indicator
  Wetbulb,                                ! Humidity Indicating Type
  ,                                       ! Humidity Indicating Day Schedule Name
  DefaultMultipliers,                     ! Dry-Bulb Temperature Range Modifier Type
  ,                                       ! Dry-Bulb Temperature Range Modifier Schedule Name
  ASHRAETau,                              ! Solar Model Indicator
  ,                                       ! Beam Solar Day Schedule Name
  ,                                       ! Diffuse Solar Day Schedule Name
  0.45,                                   ! ASHRAE Taub {dimensionless}
  2.065;                                  ! ASHRAE Taud {dimensionless}

OS:ComponentData,
  {f6a3ea22-c727-4bca-970e-a81db43fa97a}, ! Handle
  Component Data 1,                       ! Name
  {4e400bff-c553-463b-a5b5-7c93aabe2976}, ! UUID
  {90af9e55-3629-4106-81f3-52f510a9cc1d}, ! Version UUID
  1366309850,                             ! Creation Timestamp
  1366309850,                             ! Version Timestamp
  {4816ff2d-49f8-41cc-93e9-182d77f209d4}; ! Name of Object 1

