
OS:Version,
  {a01ed4ad-9880-4a46-b515-9cb320c7afba}, ! Handle
  0.9.3;                                  ! Version Identifier

OS:SizingPeriod:DesignDay,
  {7b3ed8ab-f152-4ff6-a3ee-f784bf7e090b}, ! Handle
  Sandberg Ann Clg 2% Condns DP=>MDB,     ! Name
  21.8,                                   ! Maximum Dry-Bulb Temperature {C}
  11.4,                                   ! Daily Dry-Bulb Temperature Range {deltaC}
  12.1,                                   ! Humidity Indicating Conditions at Maximum Dry-Bulb {BasedOnField A3}
  85840,                                  ! Barometric Pressure {Pa}
  5.1,                                    ! Wind Speed {m/s}
  170,                                    ! Wind Direction {deg}
  0,                                      ! Sky Clearness
  0,                                      ! Rain Indicator
  0,                                      ! Snow Indicator
  21,                                     ! Day of Month
  8,                                      ! Month
  SummerDesignDay,                        ! Day Type
  0,                                      ! Daylight Saving Time Indicator
  Dewpoint,                               ! Humidity Indicating Type
  ,                                       ! Humidity Indicating Day Schedule Name
  DefaultMultipliers,                     ! Dry-Bulb Temperature Range Modifier Type
  ,                                       ! Dry-Bulb Temperature Range Modifier Schedule Name
  ASHRAETau,                              ! Solar Model Indicator
  ,                                       ! Beam Solar Day Schedule Name
  ,                                       ! Diffuse Solar Day Schedule Name
  0.351,                                  ! ASHRAE Taub {dimensionless}
  2.367;                                  ! ASHRAE Taud {dimensionless}

OS:ComponentData,
  {962a907d-e59f-47f9-8828-85dc829b81be}, ! Handle
  Component Data 1,                       ! Name
  {5bf19271-eca5-437c-a626-1ee6741597f1}, ! UUID
  {bc136a2d-142f-465e-bf08-a063d8a56ecd}, ! Version UUID
  1366306605,                             ! Creation Timestamp
  1366306605,                             ! Version Timestamp
  {7b3ed8ab-f152-4ff6-a3ee-f784bf7e090b}; ! Name of Object 1

