
OS:Version,
  {db0023a8-ef6a-4387-88b2-d7aa096b5d04}, ! Handle
  0.9.3;                                  ! Version Identifier

OS:SizingPeriod:DesignDay,
  {c5ec57b1-2199-4ac2-9eb0-621aea88ba3f}, ! Handle
  Missoula International Ap Ann Htg 99% Condns DB, ! Name
  -16.8,                                  ! Maximum Dry-Bulb Temperature {C}
  0,                                      ! Daily Dry-Bulb Temperature Range {deltaC}
  -16.8,                                  ! Humidity Indicating Conditions at Maximum Dry-Bulb {BasedOnField A3}
  90169,                                  ! Barometric Pressure {Pa}
  1.6,                                    ! Wind Speed {m/s}
  90,                                     ! Wind Direction {deg}
  0,                                      ! Sky Clearness
  0,                                      ! Rain Indicator
  0,                                      ! Snow Indicator
  21,                                     ! Day of Month
  12,                                     ! Month
  WinterDesignDay,                        ! Day Type
  0,                                      ! Daylight Saving Time Indicator
  Wetbulb,                                ! Humidity Indicating Type
  ,                                       ! Humidity Indicating Day Schedule Name
  DefaultMultipliers,                     ! Dry-Bulb Temperature Range Modifier Type
  ,                                       ! Dry-Bulb Temperature Range Modifier Schedule Name
  ASHRAEClearSky;                         ! Solar Model Indicator

OS:ComponentData,
  {77cb35e3-453b-4b58-a92c-b8152d193d7e}, ! Handle
  Component Data 1,                       ! Name
  {c894b0cc-8541-4576-a6b1-0b29ec9a83e9}, ! UUID
  {3d41b33e-a53c-4463-8f57-49094d67cdf5}, ! Version UUID
  1366308848,                             ! Creation Timestamp
  1366308848,                             ! Version Timestamp
  {c5ec57b1-2199-4ac2-9eb0-621aea88ba3f}; ! Name of Object 1

