
OS:Version,
  {925f8ea5-b7ff-47f8-9384-4f2a415ef08d}, ! Handle
  0.9.3;                                  ! Version Identifier

OS:SizingPeriod:DesignDay,
  {51c102ff-db41-466b-8a72-984dbb37c9d6}, ! Handle
  Whittier Ann Clg 1% Condns Enth=>MDB,   ! Name
  19,                                     ! Maximum Dry-Bulb Temperature {C}
  5.4,                                    ! Daily Dry-Bulb Temperature Range {deltaC}
  41200,                                  ! Humidity Indicating Conditions at Maximum Dry-Bulb {BasedOnField A3}
  101217,                                 ! Barometric Pressure {Pa}
  4.9,                                    ! Wind Speed {m/s}
  210,                                    ! Wind Direction {deg}
  0,                                      ! Sky Clearness
  0,                                      ! Rain Indicator
  0,                                      ! Snow Indicator
  21,                                     ! Day of Month
  7,                                      ! Month
  SummerDesignDay,                        ! Day Type
  0,                                      ! Daylight Saving Time Indicator
  Enthalpy,                               ! Humidity Indicating Type
  ,                                       ! Humidity Indicating Day Schedule Name
  DefaultMultipliers,                     ! Dry-Bulb Temperature Range Modifier Type
  ,                                       ! Dry-Bulb Temperature Range Modifier Schedule Name
  ASHRAETau,                              ! Solar Model Indicator
  ,                                       ! Beam Solar Day Schedule Name
  ,                                       ! Diffuse Solar Day Schedule Name
  0.407,                                  ! ASHRAE Taub {dimensionless}
  2.048;                                  ! ASHRAE Taud {dimensionless}

OS:ComponentData,
  {234e5035-2d3c-41af-b7a5-219232e79cea}, ! Handle
  Component Data 1,                       ! Name
  {df901ffa-0e68-4550-b5c4-7e03d5976fc1}, ! UUID
  {84d20508-b0a0-49f0-8ada-88d14a8f530b}, ! Version UUID
  1366305614,                             ! Creation Timestamp
  1366305614,                             ! Version Timestamp
  {51c102ff-db41-466b-8a72-984dbb37c9d6}; ! Name of Object 1

