
OS:Version,
  {840fa053-2b9d-447b-9675-720eb54453c0}, ! Handle
  0.9.3;                                  ! Version Identifier

OS:SizingPeriod:DesignDay,
  {0b61786f-5dd8-4720-9054-91385f812278}, ! Handle
  Marietta Dobbins Afb Ann Clg 2% Condns Enth=>MDB, ! Name
  29.6,                                   ! Maximum Dry-Bulb Temperature {C}
  9.6,                                    ! Daily Dry-Bulb Temperature Range {deltaC}
  73000,                                  ! Humidity Indicating Conditions at Maximum Dry-Bulb {BasedOnField A3}
  97423,                                  ! Barometric Pressure {Pa}
  2.7,                                    ! Wind Speed {m/s}
  300,                                    ! Wind Direction {deg}
  0,                                      ! Sky Clearness
  0,                                      ! Rain Indicator
  0,                                      ! Snow Indicator
  21,                                     ! Day of Month
  7,                                      ! Month
  SummerDesignDay,                        ! Day Type
  0,                                      ! Daylight Saving Time Indicator
  Enthalpy,                               ! Humidity Indicating Type
  ,                                       ! Humidity Indicating Day Schedule Name
  DefaultMultipliers,                     ! Dry-Bulb Temperature Range Modifier Type
  ,                                       ! Dry-Bulb Temperature Range Modifier Schedule Name
  ASHRAETau,                              ! Solar Model Indicator
  ,                                       ! Beam Solar Day Schedule Name
  ,                                       ! Diffuse Solar Day Schedule Name
  0.558,                                  ! ASHRAE Taub {dimensionless}
  1.77;                                   ! ASHRAE Taud {dimensionless}

OS:ComponentData,
  {fc95afcd-27e8-480b-a57f-4b44b268373a}, ! Handle
  Component Data 1,                       ! Name
  {c9a967b5-a918-4a47-a5cf-f82b26707ede}, ! UUID
  {f00a5b74-1ab6-4194-b6b1-70b8be87d297}, ! Version UUID
  1366307033,                             ! Creation Timestamp
  1366307033,                             ! Version Timestamp
  {0b61786f-5dd8-4720-9054-91385f812278}; ! Name of Object 1

