
OS:Version,
  {0f9178ef-389c-431a-ba56-fc7cd16e173d}, ! Handle
  0.9.3;                                  ! Version Identifier

OS:SizingPeriod:DesignDay,
  {30c075a1-e997-4f6a-874c-de266f39e2cc}, ! Handle
  MASSENA Ann Clg .4% Condns DP=>MDB,     ! Name
  26.9,                                   ! Maximum Dry-Bulb Temperature {C}
  11.7,                                   ! Daily Dry-Bulb Temperature Range {deltaC}
  22.4,                                   ! Humidity Indicating Conditions at Maximum Dry-Bulb {BasedOnField A3}
  100570,                                 ! Barometric Pressure {Pa}
  4.7,                                    ! Wind Speed {m/s}
  240,                                    ! Wind Direction {deg}
  0,                                      ! Sky Clearness
  0,                                      ! Rain Indicator
  0,                                      ! Snow Indicator
  21,                                     ! Day of Month
  7,                                      ! Month
  SummerDesignDay,                        ! Day Type
  0,                                      ! Daylight Saving Time Indicator
  Dewpoint,                               ! Humidity Indicating Type
  ,                                       ! Humidity Indicating Day Schedule Name
  DefaultMultipliers,                     ! Dry-Bulb Temperature Range Modifier Type
  ,                                       ! Dry-Bulb Temperature Range Modifier Schedule Name
  ASHRAETau,                              ! Solar Model Indicator
  ,                                       ! Beam Solar Day Schedule Name
  ,                                       ! Diffuse Solar Day Schedule Name
  0.454,                                  ! ASHRAE Taub {dimensionless}
  2.024;                                  ! ASHRAE Taud {dimensionless}

OS:ComponentData,
  {21e8e565-a35e-4c52-b88c-f452ede5d8d9}, ! Handle
  Component Data 1,                       ! Name
  {4b5abcb8-8f70-4743-9dc4-1b4e3d726c84}, ! UUID
  {4107bea1-88b2-44b7-bf7d-3fe389959896}, ! Version UUID
  1366309646,                             ! Creation Timestamp
  1366309646,                             ! Version Timestamp
  {30c075a1-e997-4f6a-874c-de266f39e2cc}; ! Name of Object 1

