
OS:Version,
  {59334e49-5ff3-4a25-8545-5435e5c8b91d}, ! Handle
  0.9.3;                                  ! Version Identifier

OS:SizingPeriod:DesignDay,
  {c266c657-8ce5-4039-a030-f6065e2614b9}, ! Handle
  Ukiah Municipal Ap Ann Htg 99% Condns DB, ! Name
  -0.2,                                   ! Maximum Dry-Bulb Temperature {C}
  0,                                      ! Daily Dry-Bulb Temperature Range {deltaC}
  -0.2,                                   ! Humidity Indicating Conditions at Maximum Dry-Bulb {BasedOnField A3}
  99075,                                  ! Barometric Pressure {Pa}
  0.2,                                    ! Wind Speed {m/s}
  290,                                    ! Wind Direction {deg}
  0,                                      ! Sky Clearness
  0,                                      ! Rain Indicator
  0,                                      ! Snow Indicator
  21,                                     ! Day of Month
  12,                                     ! Month
  WinterDesignDay,                        ! Day Type
  0,                                      ! Daylight Saving Time Indicator
  Wetbulb,                                ! Humidity Indicating Type
  ,                                       ! Humidity Indicating Day Schedule Name
  DefaultMultipliers,                     ! Dry-Bulb Temperature Range Modifier Type
  ,                                       ! Dry-Bulb Temperature Range Modifier Schedule Name
  ASHRAEClearSky;                         ! Solar Model Indicator

OS:ComponentData,
  {967a9b54-f58e-4bfd-921c-810ab7b98840}, ! Handle
  Component Data 1,                       ! Name
  {460e1355-0946-45d9-aad6-6d395cf64f0e}, ! UUID
  {044e428b-914f-4d0e-a2bb-8175cdfe2936}, ! Version UUID
  1366306628,                             ! Creation Timestamp
  1366306628,                             ! Version Timestamp
  {c266c657-8ce5-4039-a030-f6065e2614b9}; ! Name of Object 1

