
OS:Version,
  {ff576149-fc78-4ffc-920a-6fcf712e5cd2}, ! Handle
  0.9.3;                                  ! Version Identifier

OS:SizingPeriod:DesignDay,
  {b957dc49-7f25-452f-83c5-9980480b3c66}, ! Handle
  Trinidad Las Animas County Ap Ann Clg 2% Condns WB=>MDB, ! Name
  26.7,                                   ! Maximum Dry-Bulb Temperature {C}
  15.6,                                   ! Daily Dry-Bulb Temperature Range {deltaC}
  16.9,                                   ! Humidity Indicating Conditions at Maximum Dry-Bulb {BasedOnField A3}
  81984,                                  ! Barometric Pressure {Pa}
  4.7,                                    ! Wind Speed {m/s}
  180,                                    ! Wind Direction {deg}
  0,                                      ! Sky Clearness
  0,                                      ! Rain Indicator
  0,                                      ! Snow Indicator
  21,                                     ! Day of Month
  7,                                      ! Month
  SummerDesignDay,                        ! Day Type
  0,                                      ! Daylight Saving Time Indicator
  Wetbulb,                                ! Humidity Indicating Type
  ,                                       ! Humidity Indicating Day Schedule Name
  DefaultMultipliers,                     ! Dry-Bulb Temperature Range Modifier Type
  ,                                       ! Dry-Bulb Temperature Range Modifier Schedule Name
  ASHRAETau,                              ! Solar Model Indicator
  ,                                       ! Beam Solar Day Schedule Name
  ,                                       ! Diffuse Solar Day Schedule Name
  0.396,                                  ! ASHRAE Taub {dimensionless}
  2.111;                                  ! ASHRAE Taud {dimensionless}

OS:ComponentData,
  {357ee869-fc8e-42b8-89e8-5f6601d8ae79}, ! Handle
  Component Data 1,                       ! Name
  {c401dd4a-6ce7-4d4a-ae91-b2c77730752a}, ! UUID
  {13e2a3a3-ea7c-4e77-a5db-fbddf49791c0}, ! Version UUID
  1366306743,                             ! Creation Timestamp
  1366306743,                             ! Version Timestamp
  {b957dc49-7f25-452f-83c5-9980480b3c66}; ! Name of Object 1

