
OS:Version,
  {50312117-444f-4c2f-b71b-a4c3bf316f91}, ! Handle
  0.9.3;                                  ! Version Identifier

OS:SizingPeriod:DesignDay,
  {c40d7b77-5834-4ed0-8484-6e47e52fe909}, ! Handle
  Middleton Island Aut Ann Clg .4% Condns DP=>MDB, ! Name
  15.8,                                   ! Maximum Dry-Bulb Temperature {C}
  3.4,                                    ! Daily Dry-Bulb Temperature Range {deltaC}
  12.7,                                   ! Humidity Indicating Conditions at Maximum Dry-Bulb {BasedOnField A3}
  101157,                                 ! Barometric Pressure {Pa}
  3.7,                                    ! Wind Speed {m/s}
  270,                                    ! Wind Direction {deg}
  0,                                      ! Sky Clearness
  0,                                      ! Rain Indicator
  0,                                      ! Snow Indicator
  21,                                     ! Day of Month
  8,                                      ! Month
  SummerDesignDay,                        ! Day Type
  0,                                      ! Daylight Saving Time Indicator
  Dewpoint,                               ! Humidity Indicating Type
  ,                                       ! Humidity Indicating Day Schedule Name
  DefaultMultipliers,                     ! Dry-Bulb Temperature Range Modifier Type
  ,                                       ! Dry-Bulb Temperature Range Modifier Schedule Name
  ASHRAETau,                              ! Solar Model Indicator
  ,                                       ! Beam Solar Day Schedule Name
  ,                                       ! Diffuse Solar Day Schedule Name
  0.366,                                  ! ASHRAE Taub {dimensionless}
  2.392;                                  ! ASHRAE Taud {dimensionless}

OS:ComponentData,
  {e92a8248-44eb-4994-b675-ed0157a333ee}, ! Handle
  Component Data 1,                       ! Name
  {2d8029f2-9adf-4fef-9e6d-b9d71e5f446b}, ! UUID
  {47d08c1c-a8da-491a-8277-a848bc9144d5}, ! Version UUID
  1366305429,                             ! Creation Timestamp
  1366305429,                             ! Version Timestamp
  {c40d7b77-5834-4ed0-8484-6e47e52fe909}; ! Name of Object 1

