
OS:Version,
  {7854b9f1-72d3-4c5a-a86c-d847b90949e2}, ! Handle
  0.9.3;                                  ! Version Identifier

OS:SizingPeriod:DesignDay,
  {4d1f4aec-5880-445f-8bc8-71139205b3af}, ! Handle
  Marion   Wytheville Ann Hum_n 99.6% Condns DP=>MCDB, ! Name
  -11.3,                                  ! Maximum Dry-Bulb Temperature {C}
  0,                                      ! Daily Dry-Bulb Temperature Range {deltaC}
  -18.8,                                  ! Humidity Indicating Conditions at Maximum Dry-Bulb {BasedOnField A3}
  92299,                                  ! Barometric Pressure {Pa}
  5.3,                                    ! Wind Speed {m/s}
  270,                                    ! Wind Direction {deg}
  0,                                      ! Sky Clearness
  0,                                      ! Rain Indicator
  0,                                      ! Snow Indicator
  21,                                     ! Day of Month
  1,                                      ! Month
  WinterDesignDay,                        ! Day Type
  0,                                      ! Daylight Saving Time Indicator
  Dewpoint,                               ! Humidity Indicating Type
  ,                                       ! Humidity Indicating Day Schedule Name
  DefaultMultipliers,                     ! Dry-Bulb Temperature Range Modifier Type
  ,                                       ! Dry-Bulb Temperature Range Modifier Schedule Name
  ASHRAEClearSky;                         ! Solar Model Indicator

OS:ComponentData,
  {72281d68-61fa-4f60-bf36-191414aec322}, ! Handle
  Component Data 1,                       ! Name
  {9e52b771-19ee-4f78-8a04-f0a0e6359d98}, ! UUID
  {7ff79e9c-52ad-4797-8309-fe05e8ebbdd6}, ! Version UUID
  1366311099,                             ! Creation Timestamp
  1366311099,                             ! Version Timestamp
  {4d1f4aec-5880-445f-8bc8-71139205b3af}; ! Name of Object 1

