
OS:Version,
  {70230f4e-e311-4fd4-b3d6-6119659e415c}, ! Handle
  0.9.3;                                  ! Version Identifier

OS:SizingPeriod:DesignDay,
  {987931a3-4c78-4453-a19d-0285e3452147}, ! Handle
  Sioux City Ann Htg 99% Condns DB,       ! Name
  -19.8,                                  ! Maximum Dry-Bulb Temperature {C}
  0,                                      ! Daily Dry-Bulb Temperature Range {deltaC}
  -19.8,                                  ! Humidity Indicating Conditions at Maximum Dry-Bulb {BasedOnField A3}
  97353,                                  ! Barometric Pressure {Pa}
  5.2,                                    ! Wind Speed {m/s}
  320,                                    ! Wind Direction {deg}
  0,                                      ! Sky Clearness
  0,                                      ! Rain Indicator
  0,                                      ! Snow Indicator
  21,                                     ! Day of Month
  1,                                      ! Month
  WinterDesignDay,                        ! Day Type
  0,                                      ! Daylight Saving Time Indicator
  Wetbulb,                                ! Humidity Indicating Type
  ,                                       ! Humidity Indicating Day Schedule Name
  DefaultMultipliers,                     ! Dry-Bulb Temperature Range Modifier Type
  ,                                       ! Dry-Bulb Temperature Range Modifier Schedule Name
  ASHRAEClearSky;                         ! Solar Model Indicator

OS:ComponentData,
  {95bb64da-6a34-41df-bfad-299a4f98f809}, ! Handle
  Component Data 1,                       ! Name
  {f252bee9-0afe-41fc-8cfa-bcbe8d0ba2b7}, ! UUID
  {8ae49de8-9189-45fd-bc0b-f412b9a49379}, ! Version UUID
  1366307232,                             ! Creation Timestamp
  1366307232,                             ! Version Timestamp
  {987931a3-4c78-4453-a19d-0285e3452147}; ! Name of Object 1

