
OS:Version,
  {83baeeec-87d3-45e8-bb7a-6100672b3c4f}, ! Handle
  0.9.3;                                  ! Version Identifier

OS:SizingPeriod:DesignDay,
  {54e7c7da-f1ff-4314-8f4f-e76ca143c449}, ! Handle
  Whidbey Island NAS Ann Clg 2% Condns DB=>MWB, ! Name
  19.4,                                   ! Maximum Dry-Bulb Temperature {C}
  7.8,                                    ! Daily Dry-Bulb Temperature Range {deltaC}
  15.1,                                   ! Humidity Indicating Conditions at Maximum Dry-Bulb {BasedOnField A3}
  101205,                                 ! Barometric Pressure {Pa}
  3,                                      ! Wind Speed {m/s}
  260,                                    ! Wind Direction {deg}
  0,                                      ! Sky Clearness
  0,                                      ! Rain Indicator
  0,                                      ! Snow Indicator
  21,                                     ! Day of Month
  8,                                      ! Month
  SummerDesignDay,                        ! Day Type
  0,                                      ! Daylight Saving Time Indicator
  Wetbulb,                                ! Humidity Indicating Type
  ,                                       ! Humidity Indicating Day Schedule Name
  DefaultMultipliers,                     ! Dry-Bulb Temperature Range Modifier Type
  ,                                       ! Dry-Bulb Temperature Range Modifier Schedule Name
  ASHRAETau,                              ! Solar Model Indicator
  ,                                       ! Beam Solar Day Schedule Name
  ,                                       ! Diffuse Solar Day Schedule Name
  0.356,                                  ! ASHRAE Taub {dimensionless}
  2.524;                                  ! ASHRAE Taud {dimensionless}

OS:ComponentData,
  {95bad741-a287-462f-a385-39b2a164cc81}, ! Handle
  Component Data 1,                       ! Name
  {f87f2faa-bd94-49b7-b085-d1d861847e7b}, ! UUID
  {90e0aa2c-69f2-49c8-802f-81d41837bb10}, ! Version UUID
  1366311432,                             ! Creation Timestamp
  1366311432,                             ! Version Timestamp
  {54e7c7da-f1ff-4314-8f4f-e76ca143c449}; ! Name of Object 1

