
OS:Version,
  {a3f8477c-080b-4208-9188-687cbd79aa4b}, ! Handle
  0.9.3;                                  ! Version Identifier

OS:SizingPeriod:DesignDay,
  {3e003b06-f0ee-4395-a845-5d070dd19b2c}, ! Handle
  Oceana Nas Ann Hum_n 99.6% Condns DP=>MCDB, ! Name
  -3,                                     ! Maximum Dry-Bulb Temperature {C}
  0,                                      ! Daily Dry-Bulb Temperature Range {deltaC}
  -15.2,                                  ! Humidity Indicating Conditions at Maximum Dry-Bulb {BasedOnField A3}
  101229,                                 ! Barometric Pressure {Pa}
  4,                                      ! Wind Speed {m/s}
  0,                                      ! Wind Direction {deg}
  0,                                      ! Sky Clearness
  0,                                      ! Rain Indicator
  0,                                      ! Snow Indicator
  21,                                     ! Day of Month
  1,                                      ! Month
  WinterDesignDay,                        ! Day Type
  0,                                      ! Daylight Saving Time Indicator
  Dewpoint,                               ! Humidity Indicating Type
  ,                                       ! Humidity Indicating Day Schedule Name
  DefaultMultipliers,                     ! Dry-Bulb Temperature Range Modifier Type
  ,                                       ! Dry-Bulb Temperature Range Modifier Schedule Name
  ASHRAEClearSky;                         ! Solar Model Indicator

OS:ComponentData,
  {ffa5ccf0-1246-4ba5-82c7-554732a89cac}, ! Handle
  Component Data 1,                       ! Name
  {99a73c3b-4490-459f-9a6b-c5ac8e29986f}, ! UUID
  {457fc0f9-5f34-4299-b4f2-ed8c0a0646b5}, ! Version UUID
  1366311144,                             ! Creation Timestamp
  1366311144,                             ! Version Timestamp
  {3e003b06-f0ee-4395-a845-5d070dd19b2c}; ! Name of Object 1

