
OS:Version,
  {dcf12bfe-a891-403d-8dfa-719097061070}, ! Handle
  0.9.3;                                  ! Version Identifier

OS:SizingPeriod:DesignDay,
  {b6d47e90-28d3-4dde-995e-9607d8103338}, ! Handle
  Teterboro Airport Ann Clg 2% Condns Enth=>MDB, ! Name
  28.4,                                   ! Maximum Dry-Bulb Temperature {C}
  9.9,                                    ! Daily Dry-Bulb Temperature Range {deltaC}
  71300,                                  ! Humidity Indicating Conditions at Maximum Dry-Bulb {BasedOnField A3}
  101289,                                 ! Barometric Pressure {Pa}
  4.8,                                    ! Wind Speed {m/s}
  240,                                    ! Wind Direction {deg}
  0,                                      ! Sky Clearness
  0,                                      ! Rain Indicator
  0,                                      ! Snow Indicator
  21,                                     ! Day of Month
  7,                                      ! Month
  SummerDesignDay,                        ! Day Type
  0,                                      ! Daylight Saving Time Indicator
  Enthalpy,                               ! Humidity Indicating Type
  ,                                       ! Humidity Indicating Day Schedule Name
  DefaultMultipliers,                     ! Dry-Bulb Temperature Range Modifier Type
  ,                                       ! Dry-Bulb Temperature Range Modifier Schedule Name
  ASHRAETau,                              ! Solar Model Indicator
  ,                                       ! Beam Solar Day Schedule Name
  ,                                       ! Diffuse Solar Day Schedule Name
  0.525,                                  ! ASHRAE Taub {dimensionless}
  1.838;                                  ! ASHRAE Taud {dimensionless}

OS:ComponentData,
  {67aa9342-4238-4d4e-8671-2201fce3f1de}, ! Handle
  Component Data 1,                       ! Name
  {c7292948-cb99-4fd9-b629-f1ecd3a397ca}, ! UUID
  {c08cfd6d-c597-4c51-b25e-be4e4eac72e6}, ! Version UUID
  1366309346,                             ! Creation Timestamp
  1366309346,                             ! Version Timestamp
  {b6d47e90-28d3-4dde-995e-9607d8103338}; ! Name of Object 1

