
OS:Version,
  {df030674-0731-4b1b-8e44-2a35c8db8c32}, ! Handle
  0.9.3;                                  ! Version Identifier

OS:SizingPeriod:DesignDay,
  {98774114-e268-41e1-be5f-9bfe2f27f1b4}, ! Handle
  Montague Siskiyou County Ap Ann Htg 99.6% Condns DB, ! Name
  -8.1,                                   ! Maximum Dry-Bulb Temperature {C}
  0,                                      ! Daily Dry-Bulb Temperature Range {deltaC}
  -8.1,                                   ! Humidity Indicating Conditions at Maximum Dry-Bulb {BasedOnField A3}
  92043,                                  ! Barometric Pressure {Pa}
  0.9,                                    ! Wind Speed {m/s}
  60,                                     ! Wind Direction {deg}
  0,                                      ! Sky Clearness
  0,                                      ! Rain Indicator
  0,                                      ! Snow Indicator
  21,                                     ! Day of Month
  12,                                     ! Month
  WinterDesignDay,                        ! Day Type
  0,                                      ! Daylight Saving Time Indicator
  Wetbulb,                                ! Humidity Indicating Type
  ,                                       ! Humidity Indicating Day Schedule Name
  DefaultMultipliers,                     ! Dry-Bulb Temperature Range Modifier Type
  ,                                       ! Dry-Bulb Temperature Range Modifier Schedule Name
  ASHRAEClearSky;                         ! Solar Model Indicator

OS:ComponentData,
  {3491b663-51b1-4e76-abb6-9ce0e3c790eb}, ! Handle
  Component Data 1,                       ! Name
  {6d835761-8be5-40ef-bed1-1f2e1d6c5239}, ! UUID
  {ef4a1397-324a-45c2-9282-366db625c492}, ! Version UUID
  1366306493,                             ! Creation Timestamp
  1366306493,                             ! Version Timestamp
  {98774114-e268-41e1-be5f-9bfe2f27f1b4}; ! Name of Object 1

