
OS:Version,
  {df3e38da-31a6-469f-9144-d8b2b691c5da}, ! Handle
  0.9.3;                                  ! Version Identifier

OS:SizingPeriod:DesignDay,
  {cfb8f044-1bca-40a4-82aa-97d4902cca05}, ! Handle
  ROCK_SPRINGS Ann Htg Wind 99.6% Condns WS=>MCDB, ! Name
  -2,                                     ! Maximum Dry-Bulb Temperature {C}
  0,                                      ! Daily Dry-Bulb Temperature Range {deltaC}
  -2,                                     ! Humidity Indicating Conditions at Maximum Dry-Bulb {BasedOnField A3}
  78944,                                  ! Barometric Pressure {Pa}
  16.3,                                   ! Wind Speed {m/s}
  70,                                     ! Wind Direction {deg}
  0,                                      ! Sky Clearness
  0,                                      ! Rain Indicator
  0,                                      ! Snow Indicator
  21,                                     ! Day of Month
  12,                                     ! Month
  WinterDesignDay,                        ! Day Type
  0,                                      ! Daylight Saving Time Indicator
  Wetbulb,                                ! Humidity Indicating Type
  ,                                       ! Humidity Indicating Day Schedule Name
  DefaultMultipliers,                     ! Dry-Bulb Temperature Range Modifier Type
  ,                                       ! Dry-Bulb Temperature Range Modifier Schedule Name
  ASHRAEClearSky;                         ! Solar Model Indicator

OS:ComponentData,
  {634ea27d-3696-4fa2-afe8-d789e458f7ec}, ! Handle
  Component Data 1,                       ! Name
  {68d290bc-1173-4f2a-a38f-6397cf695444}, ! UUID
  {bdcc8b4e-1b74-457f-a12f-0ac513e3f2f0}, ! Version UUID
  1366311768,                             ! Creation Timestamp
  1366311768,                             ! Version Timestamp
  {cfb8f044-1bca-40a4-82aa-97d4902cca05}; ! Name of Object 1

