
OS:Version,
  {9d686ae1-d9ca-465f-8403-557ea434905b}, ! Handle
  0.9.3;                                  ! Version Identifier

OS:SizingPeriod:DesignDay,
  {085f5dd4-7413-4c74-a60f-0984442bd510}, ! Handle
  Medford Ann Htg 99% Condns DB,          ! Name
  -3.5,                                   ! Maximum Dry-Bulb Temperature {C}
  0,                                      ! Daily Dry-Bulb Temperature Range {deltaC}
  -3.5,                                   ! Humidity Indicating Conditions at Maximum Dry-Bulb {BasedOnField A3}
  96553,                                  ! Barometric Pressure {Pa}
  1,                                      ! Wind Speed {m/s}
  120,                                    ! Wind Direction {deg}
  0,                                      ! Sky Clearness
  0,                                      ! Rain Indicator
  0,                                      ! Snow Indicator
  21,                                     ! Day of Month
  12,                                     ! Month
  WinterDesignDay,                        ! Day Type
  0,                                      ! Daylight Saving Time Indicator
  Wetbulb,                                ! Humidity Indicating Type
  ,                                       ! Humidity Indicating Day Schedule Name
  DefaultMultipliers,                     ! Dry-Bulb Temperature Range Modifier Type
  ,                                       ! Dry-Bulb Temperature Range Modifier Schedule Name
  ASHRAEClearSky;                         ! Solar Model Indicator

OS:ComponentData,
  {83aad965-2d18-4942-94ea-62821993277e}, ! Handle
  Component Data 1,                       ! Name
  {4d96c6e0-d329-492d-8601-61e24a90ad6f}, ! UUID
  {664c72d5-30f8-4bcd-b1bb-361cb1d4df95}, ! Version UUID
  1366310029,                             ! Creation Timestamp
  1366310029,                             ! Version Timestamp
  {085f5dd4-7413-4c74-a60f-0984442bd510}; ! Name of Object 1

