
OS:Version,
  {d2acbb2b-94e0-4448-8db4-c95cbb42930c}, ! Handle
  0.9.3;                                  ! Version Identifier

OS:SizingPeriod:DesignDay,
  {c216a4a7-efa8-4655-8d10-28d0a7aeb9f8}, ! Handle
  New Bern Craven Co Regl Ap Ann Clg 2% Condns Enth=>MDB, ! Name
  30.3,                                   ! Maximum Dry-Bulb Temperature {C}
  9.3,                                    ! Daily Dry-Bulb Temperature Range {deltaC}
  78500,                                  ! Humidity Indicating Conditions at Maximum Dry-Bulb {BasedOnField A3}
  101265,                                 ! Barometric Pressure {Pa}
  3.6,                                    ! Wind Speed {m/s}
  240,                                    ! Wind Direction {deg}
  0,                                      ! Sky Clearness
  0,                                      ! Rain Indicator
  0,                                      ! Snow Indicator
  21,                                     ! Day of Month
  7,                                      ! Month
  SummerDesignDay,                        ! Day Type
  0,                                      ! Daylight Saving Time Indicator
  Enthalpy,                               ! Humidity Indicating Type
  ,                                       ! Humidity Indicating Day Schedule Name
  DefaultMultipliers,                     ! Dry-Bulb Temperature Range Modifier Type
  ,                                       ! Dry-Bulb Temperature Range Modifier Schedule Name
  ASHRAETau,                              ! Solar Model Indicator
  ,                                       ! Beam Solar Day Schedule Name
  ,                                       ! Diffuse Solar Day Schedule Name
  0.591,                                  ! ASHRAE Taub {dimensionless}
  1.715;                                  ! ASHRAE Taud {dimensionless}

OS:ComponentData,
  {e30ea9de-1e85-48bf-9d68-668802841d6c}, ! Handle
  Component Data 1,                       ! Name
  {44e502c5-e0f4-4b0e-99ec-8e4b05dc5549}, ! UUID
  {264b325e-09e4-49a2-9318-4eac34240b57}, ! Version UUID
  1366308953,                             ! Creation Timestamp
  1366308953,                             ! Version Timestamp
  {c216a4a7-efa8-4655-8d10-28d0a7aeb9f8}; ! Name of Object 1

