
OS:Version,
  {49c1411d-a771-4e5a-bfe7-f6331ad7dfb3}, ! Handle
  0.9.3;                                  ! Version Identifier

OS:SizingPeriod:DesignDay,
  {8899ad58-3c57-43f1-a652-599ba37f93d2}, ! Handle
  Melfa Accomack Arpt Ann Clg .4% Condns DP=>MDB, ! Name
  29.6,                                   ! Maximum Dry-Bulb Temperature {C}
  9.6,                                    ! Daily Dry-Bulb Temperature Range {deltaC}
  27,                                     ! Humidity Indicating Conditions at Maximum Dry-Bulb {BasedOnField A3}
  101145,                                 ! Barometric Pressure {Pa}
  3.4,                                    ! Wind Speed {m/s}
  240,                                    ! Wind Direction {deg}
  0,                                      ! Sky Clearness
  0,                                      ! Rain Indicator
  0,                                      ! Snow Indicator
  21,                                     ! Day of Month
  7,                                      ! Month
  SummerDesignDay,                        ! Day Type
  0,                                      ! Daylight Saving Time Indicator
  Dewpoint,                               ! Humidity Indicating Type
  ,                                       ! Humidity Indicating Day Schedule Name
  DefaultMultipliers,                     ! Dry-Bulb Temperature Range Modifier Type
  ,                                       ! Dry-Bulb Temperature Range Modifier Schedule Name
  ASHRAETau,                              ! Solar Model Indicator
  ,                                       ! Beam Solar Day Schedule Name
  ,                                       ! Diffuse Solar Day Schedule Name
  0.582,                                  ! ASHRAE Taub {dimensionless}
  1.723;                                  ! ASHRAE Taud {dimensionless}

OS:ComponentData,
  {57c2c729-532c-4312-b38a-17ed4bb187b1}, ! Handle
  Component Data 1,                       ! Name
  {fcccdb58-dcc1-4023-b0e4-45c0706eb03a}, ! UUID
  {b42ef159-a551-4a13-9e0b-f666a74e6d88}, ! Version UUID
  1366311112,                             ! Creation Timestamp
  1366311112,                             ! Version Timestamp
  {8899ad58-3c57-43f1-a652-599ba37f93d2}; ! Name of Object 1

