
OS:Version,
  {13586571-85c5-4ba3-97cd-5c63151c1e8d}, ! Handle
  0.9.3;                                  ! Version Identifier

OS:SizingPeriod:DesignDay,
  {202b5853-20e6-4d76-9f79-472751e031ad}, ! Handle
  Ogden Hill Afb Ann Clg 2% Condns WB=>MDB, ! Name
  28.1,                                   ! Maximum Dry-Bulb Temperature {C}
  12.8,                                   ! Daily Dry-Bulb Temperature Range {deltaC}
  16.8,                                   ! Humidity Indicating Conditions at Maximum Dry-Bulb {BasedOnField A3}
  84982,                                  ! Barometric Pressure {Pa}
  2.9,                                    ! Wind Speed {m/s}
  330,                                    ! Wind Direction {deg}
  0,                                      ! Sky Clearness
  0,                                      ! Rain Indicator
  0,                                      ! Snow Indicator
  21,                                     ! Day of Month
  7,                                      ! Month
  SummerDesignDay,                        ! Day Type
  0,                                      ! Daylight Saving Time Indicator
  Wetbulb,                                ! Humidity Indicating Type
  ,                                       ! Humidity Indicating Day Schedule Name
  DefaultMultipliers,                     ! Dry-Bulb Temperature Range Modifier Type
  ,                                       ! Dry-Bulb Temperature Range Modifier Schedule Name
  ASHRAETau,                              ! Solar Model Indicator
  ,                                       ! Beam Solar Day Schedule Name
  ,                                       ! Diffuse Solar Day Schedule Name
  0.419,                                  ! ASHRAE Taub {dimensionless}
  2.015;                                  ! ASHRAE Taud {dimensionless}

OS:ComponentData,
  {84524d27-df0a-41dc-8c01-c6e14ecc665e}, ! Handle
  Component Data 1,                       ! Name
  {e3bff88c-4733-478e-b2b2-fd4f72004ecc}, ! UUID
  {66e0ee8b-5d3b-48f9-9518-3820264554e4}, ! Version UUID
  1366310971,                             ! Creation Timestamp
  1366310971,                             ! Version Timestamp
  {202b5853-20e6-4d76-9f79-472751e031ad}; ! Name of Object 1

