
OS:Version,
  {db2eea97-2bd5-4cb6-9fb4-c990a5e6310c}, ! Handle
  0.9.3;                                  ! Version Identifier

OS:SizingPeriod:DesignDay,
  {9aa227ed-b1b2-4fbf-b14f-a77ed1372f41}, ! Handle
  Stillwater Rgnl Ann Clg .4% Condns WB=>MDB, ! Name
  34.1,                                   ! Maximum Dry-Bulb Temperature {C}
  12.5,                                   ! Daily Dry-Bulb Temperature Range {deltaC}
  26.1,                                   ! Humidity Indicating Conditions at Maximum Dry-Bulb {BasedOnField A3}
  97679,                                  ! Barometric Pressure {Pa}
  5.6,                                    ! Wind Speed {m/s}
  160,                                    ! Wind Direction {deg}
  0,                                      ! Sky Clearness
  0,                                      ! Rain Indicator
  0,                                      ! Snow Indicator
  21,                                     ! Day of Month
  7,                                      ! Month
  SummerDesignDay,                        ! Day Type
  0,                                      ! Daylight Saving Time Indicator
  Wetbulb,                                ! Humidity Indicating Type
  ,                                       ! Humidity Indicating Day Schedule Name
  DefaultMultipliers,                     ! Dry-Bulb Temperature Range Modifier Type
  ,                                       ! Dry-Bulb Temperature Range Modifier Schedule Name
  ASHRAETau,                              ! Solar Model Indicator
  ,                                       ! Beam Solar Day Schedule Name
  ,                                       ! Diffuse Solar Day Schedule Name
  0.433,                                  ! ASHRAE Taub {dimensionless}
  2.181;                                  ! ASHRAE Taud {dimensionless}

