
OS:Version,
  {c1f6e002-1538-4c37-b2c4-ed68edb6d82a}, ! Handle
  0.9.3;                                  ! Version Identifier

OS:SizingPeriod:DesignDay,
  {25102fba-ebf1-4212-b005-3d462fd33e60}, ! Handle
  TUCSON Ann Clg .4% Condns Enth=>MDB,    ! Name
  31.5,                                   ! Maximum Dry-Bulb Temperature {C}
  13.8,                                   ! Daily Dry-Bulb Temperature Range {deltaC}
  69900,                                  ! Humidity Indicating Conditions at Maximum Dry-Bulb {BasedOnField A3}
  92310,                                  ! Barometric Pressure {Pa}
  5,                                      ! Wind Speed {m/s}
  300,                                    ! Wind Direction {deg}
  0,                                      ! Sky Clearness
  0,                                      ! Rain Indicator
  0,                                      ! Snow Indicator
  21,                                     ! Day of Month
  7,                                      ! Month
  SummerDesignDay,                        ! Day Type
  0,                                      ! Daylight Saving Time Indicator
  Enthalpy,                               ! Humidity Indicating Type
  ,                                       ! Humidity Indicating Day Schedule Name
  DefaultMultipliers,                     ! Dry-Bulb Temperature Range Modifier Type
  ,                                       ! Dry-Bulb Temperature Range Modifier Schedule Name
  ASHRAETau,                              ! Solar Model Indicator
  ,                                       ! Beam Solar Day Schedule Name
  ,                                       ! Diffuse Solar Day Schedule Name
  0.555,                                  ! ASHRAE Taub {dimensionless}
  1.73;                                   ! ASHRAE Taud {dimensionless}

OS:ComponentData,
  {d6738bb5-faeb-4f90-9dcb-8f9fc19a5c45}, ! Handle
  Component Data 1,                       ! Name
  {e14ac81b-302e-4ef3-a0c5-c39cbb2c85ad}, ! UUID
  {10be8f66-70a1-4f04-8fd1-9ff68784572f}, ! Version UUID
  1366306319,                             ! Creation Timestamp
  1366306319,                             ! Version Timestamp
  {25102fba-ebf1-4212-b005-3d462fd33e60}; ! Name of Object 1

