
OS:Version,
  {44734e71-dc99-43e4-98cd-6230b9f7667f}, ! Handle
  0.9.3;                                  ! Version Identifier

OS:SizingPeriod:DesignDay,
  {b72c5ac0-0604-41d6-a33a-ef339b5fc1bf}, ! Handle
  Pawtucket  Awos Ann Htg Wind 99% Condns WS=>MCDB, ! Name
  -5,                                     ! Maximum Dry-Bulb Temperature {C}
  0,                                      ! Daily Dry-Bulb Temperature Range {deltaC}
  -5,                                     ! Humidity Indicating Conditions at Maximum Dry-Bulb {BasedOnField A3}
  99726,                                  ! Barometric Pressure {Pa}
  9.5,                                    ! Wind Speed {m/s}
  300,                                    ! Wind Direction {deg}
  0,                                      ! Sky Clearness
  0,                                      ! Rain Indicator
  0,                                      ! Snow Indicator
  21,                                     ! Day of Month
  1,                                      ! Month
  WinterDesignDay,                        ! Day Type
  0,                                      ! Daylight Saving Time Indicator
  Wetbulb,                                ! Humidity Indicating Type
  ,                                       ! Humidity Indicating Day Schedule Name
  DefaultMultipliers,                     ! Dry-Bulb Temperature Range Modifier Type
  ,                                       ! Dry-Bulb Temperature Range Modifier Schedule Name
  ASHRAEClearSky;                         ! Solar Model Indicator

OS:ComponentData,
  {370f58af-b41d-4ff3-93d1-549a5ff2deea}, ! Handle
  Component Data 1,                       ! Name
  {7695c1cd-e954-42dc-860f-9cd2444dc1e4}, ! UUID
  {0164da56-0d2b-440b-a32f-19f639ca99a5}, ! Version UUID
  1366310292,                             ! Creation Timestamp
  1366310292,                             ! Version Timestamp
  {b72c5ac0-0604-41d6-a33a-ef339b5fc1bf}; ! Name of Object 1

