
OS:Version,
  {0f796cec-dac3-417e-9820-1db474f56742}, ! Handle
  0.9.3;                                  ! Version Identifier

OS:SizingPeriod:DesignDay,
  {7c2c18dd-986e-40d5-a05b-b253ccaba476}, ! Handle
  South Bend Michiana Rgnl Ap Ann Clg .4% Condns WB=>MDB, ! Name
  30.4,                                   ! Maximum Dry-Bulb Temperature {C}
  10.4,                                   ! Daily Dry-Bulb Temperature Range {deltaC}
  25.2,                                   ! Humidity Indicating Conditions at Maximum Dry-Bulb {BasedOnField A3}
  98522,                                  ! Barometric Pressure {Pa}
  5.2,                                    ! Wind Speed {m/s}
  220,                                    ! Wind Direction {deg}
  0,                                      ! Sky Clearness
  0,                                      ! Rain Indicator
  0,                                      ! Snow Indicator
  21,                                     ! Day of Month
  7,                                      ! Month
  SummerDesignDay,                        ! Day Type
  0,                                      ! Daylight Saving Time Indicator
  Wetbulb,                                ! Humidity Indicating Type
  ,                                       ! Humidity Indicating Day Schedule Name
  DefaultMultipliers,                     ! Dry-Bulb Temperature Range Modifier Type
  ,                                       ! Dry-Bulb Temperature Range Modifier Schedule Name
  ASHRAETau,                              ! Solar Model Indicator
  ,                                       ! Beam Solar Day Schedule Name
  ,                                       ! Diffuse Solar Day Schedule Name
  0.433,                                  ! ASHRAE Taub {dimensionless}
  2.144;                                  ! ASHRAE Taud {dimensionless}

OS:ComponentData,
  {6f291407-d466-42ea-928d-07cb292646e9}, ! Handle
  Component Data 1,                       ! Name
  {20a1049d-1320-4e0d-b90d-8f8f67b8842b}, ! UUID
  {cb50d0be-a29d-4dae-8c9f-2469131a27f2}, ! Version UUID
  1366307484,                             ! Creation Timestamp
  1366307484,                             ! Version Timestamp
  {7c2c18dd-986e-40d5-a05b-b253ccaba476}; ! Name of Object 1

