
OS:Version,
  {94566e7b-4754-40ed-8451-d050e05c8654}, ! Handle
  0.9.3;                                  ! Version Identifier

OS:SizingPeriod:DesignDay,
  {b262cf30-4065-49b2-b11b-8d6ed25dd61c}, ! Handle
  Phoenix/Int'l Airport Ann Clg 2% Condns WB=>MDB, ! Name
  35.1,                                   ! Maximum Dry-Bulb Temperature {C}
  12,                                     ! Daily Dry-Bulb Temperature Range {deltaC}
  23.5,                                   ! Humidity Indicating Conditions at Maximum Dry-Bulb {BasedOnField A3}
  97342,                                  ! Barometric Pressure {Pa}
  4.1,                                    ! Wind Speed {m/s}
  260,                                    ! Wind Direction {deg}
  0,                                      ! Sky Clearness
  0,                                      ! Rain Indicator
  0,                                      ! Snow Indicator
  21,                                     ! Day of Month
  7,                                      ! Month
  SummerDesignDay,                        ! Day Type
  0,                                      ! Daylight Saving Time Indicator
  Wetbulb,                                ! Humidity Indicating Type
  ,                                       ! Humidity Indicating Day Schedule Name
  DefaultMultipliers,                     ! Dry-Bulb Temperature Range Modifier Type
  ,                                       ! Dry-Bulb Temperature Range Modifier Schedule Name
  ASHRAETau,                              ! Solar Model Indicator
  ,                                       ! Beam Solar Day Schedule Name
  ,                                       ! Diffuse Solar Day Schedule Name
  0.588,                                  ! ASHRAE Taub {dimensionless}
  1.653;                                  ! ASHRAE Taud {dimensionless}

OS:ComponentData,
  {a735e6e2-a5a1-4d93-becb-bd04ff6a534d}, ! Handle
  Component Data 1,                       ! Name
  {2285fc85-4511-480b-9174-c76c2006f3a7}, ! UUID
  {6ca1097d-5495-49d9-abf1-ce0bb238f11b}, ! Version UUID
  1366306291,                             ! Creation Timestamp
  1366306291,                             ! Version Timestamp
  {b262cf30-4065-49b2-b11b-8d6ed25dd61c}; ! Name of Object 1

