
OS:Version,
  {8357b165-af56-413f-983f-afdc06af4727}, ! Handle
  0.9.3;                                  ! Version Identifier

OS:SizingPeriod:DesignDay,
  {27c82bf6-5bdd-4e37-9668-8f90efd2d219}, ! Handle
  Mobile Ann Clg 1% Condns DB=>MWB,       ! Name
  33.2,                                   ! Maximum Dry-Bulb Temperature {C}
  9.4,                                    ! Daily Dry-Bulb Temperature Range {deltaC}
  24.7,                                   ! Humidity Indicating Conditions at Maximum Dry-Bulb {BasedOnField A3}
  100523,                                 ! Barometric Pressure {Pa}
  3.5,                                    ! Wind Speed {m/s}
  350,                                    ! Wind Direction {deg}
  0,                                      ! Sky Clearness
  0,                                      ! Rain Indicator
  0,                                      ! Snow Indicator
  21,                                     ! Day of Month
  7,                                      ! Month
  SummerDesignDay,                        ! Day Type
  0,                                      ! Daylight Saving Time Indicator
  Wetbulb,                                ! Humidity Indicating Type
  ,                                       ! Humidity Indicating Day Schedule Name
  DefaultMultipliers,                     ! Dry-Bulb Temperature Range Modifier Type
  ,                                       ! Dry-Bulb Temperature Range Modifier Schedule Name
  ASHRAETau,                              ! Solar Model Indicator
  ,                                       ! Beam Solar Day Schedule Name
  ,                                       ! Diffuse Solar Day Schedule Name
  0.538,                                  ! ASHRAE Taub {dimensionless}
  1.867;                                  ! ASHRAE Taud {dimensionless}

OS:ComponentData,
  {dadda533-fb45-4274-b56d-a5d5bec6eca4}, ! Handle
  Component Data 1,                       ! Name
  {b1ca94d7-abb3-49e1-a090-6bb713991455}, ! UUID
  {e8f75c8a-f5ad-4d38-976c-4a04e0c28ccd}, ! Version UUID
  1366305729,                             ! Creation Timestamp
  1366305729,                             ! Version Timestamp
  {27c82bf6-5bdd-4e37-9668-8f90efd2d219}; ! Name of Object 1

