
OS:Version,
  {fb8e4895-9706-4d76-aa0c-c8aa122ed19f}, ! Handle
  0.9.3;                                  ! Version Identifier

OS:SizingPeriod:DesignDay,
  {6a10fe68-bcf1-4d44-8ad0-e1c4c8b43443}, ! Handle
  Oklahoma City Tinker Afb Ann Clg 1% Condns DP=>MDB, ! Name
  28.3,                                   ! Maximum Dry-Bulb Temperature {C}
  11,                                     ! Daily Dry-Bulb Temperature Range {deltaC}
  22.9,                                   ! Humidity Indicating Conditions at Maximum Dry-Bulb {BasedOnField A3}
  96796,                                  ! Barometric Pressure {Pa}
  4.8,                                    ! Wind Speed {m/s}
  180,                                    ! Wind Direction {deg}
  0,                                      ! Sky Clearness
  0,                                      ! Rain Indicator
  0,                                      ! Snow Indicator
  21,                                     ! Day of Month
  7,                                      ! Month
  SummerDesignDay,                        ! Day Type
  0,                                      ! Daylight Saving Time Indicator
  Dewpoint,                               ! Humidity Indicating Type
  ,                                       ! Humidity Indicating Day Schedule Name
  DefaultMultipliers,                     ! Dry-Bulb Temperature Range Modifier Type
  ,                                       ! Dry-Bulb Temperature Range Modifier Schedule Name
  ASHRAETau,                              ! Solar Model Indicator
  ,                                       ! Beam Solar Day Schedule Name
  ,                                       ! Diffuse Solar Day Schedule Name
  0.428,                                  ! ASHRAE Taub {dimensionless}
  2.209;                                  ! ASHRAE Taud {dimensionless}

OS:ComponentData,
  {8b02275a-a96a-4328-a7d7-63fc06f78d27}, ! Handle
  Component Data 1,                       ! Name
  {d81add68-2312-4763-a35e-b145cfb048e2}, ! UUID
  {1f1b5c8d-781a-4627-9b6f-ca68dfff496b}, ! Version UUID
  1366309913,                             ! Creation Timestamp
  1366309913,                             ! Version Timestamp
  {6a10fe68-bcf1-4d44-8ad0-e1c4c8b43443}; ! Name of Object 1

