
OS:Version,
  {07eb171a-f90b-4f94-be5c-3ccdb608a017}, ! Handle
  0.9.3;                                  ! Version Identifier

OS:SizingPeriod:DesignDay,
  {82a1bf6e-85b1-4853-8451-7cc0c9b6e9af}, ! Handle
  Sarasota Bradenton Ann Clg .4% Condns DB=>MWB, ! Name
  33.4,                                   ! Maximum Dry-Bulb Temperature {C}
  8.3,                                    ! Daily Dry-Bulb Temperature Range {deltaC}
  26.2,                                   ! Humidity Indicating Conditions at Maximum Dry-Bulb {BasedOnField A3}
  101205,                                 ! Barometric Pressure {Pa}
  4.1,                                    ! Wind Speed {m/s}
  270,                                    ! Wind Direction {deg}
  0,                                      ! Sky Clearness
  0,                                      ! Rain Indicator
  0,                                      ! Snow Indicator
  21,                                     ! Day of Month
  7,                                      ! Month
  SummerDesignDay,                        ! Day Type
  0,                                      ! Daylight Saving Time Indicator
  Wetbulb,                                ! Humidity Indicating Type
  ,                                       ! Humidity Indicating Day Schedule Name
  DefaultMultipliers,                     ! Dry-Bulb Temperature Range Modifier Type
  ,                                       ! Dry-Bulb Temperature Range Modifier Schedule Name
  ASHRAETau,                              ! Solar Model Indicator
  ,                                       ! Beam Solar Day Schedule Name
  ,                                       ! Diffuse Solar Day Schedule Name
  0.498,                                  ! ASHRAE Taub {dimensionless}
  1.995;                                  ! ASHRAE Taud {dimensionless}

OS:ComponentData,
  {50493e0e-be94-4231-8385-7eacf688a826}, ! Handle
  Component Data 1,                       ! Name
  {794ddd4e-6b39-435e-91f2-534a32bfb70a}, ! UUID
  {fa800ce4-158e-47c6-bfc8-e000e6d3b11b}, ! Version UUID
  1366306908,                             ! Creation Timestamp
  1366306908,                             ! Version Timestamp
  {82a1bf6e-85b1-4853-8451-7cc0c9b6e9af}; ! Name of Object 1

