
OS:Version,
  {620e42fb-1886-4b65-8d1d-f6f7450adcf6}, ! Handle
  0.9.3;                                  ! Version Identifier

OS:SizingPeriod:DesignDay,
  {3fbcdec1-80f2-4e4b-a292-67cff7df19f5}, ! Handle
  Tulsa Ann Htg 99.6% Condns DB,          ! Name
  -11.7,                                  ! Maximum Dry-Bulb Temperature {C}
  0,                                      ! Daily Dry-Bulb Temperature Range {deltaC}
  -11.7,                                  ! Humidity Indicating Conditions at Maximum Dry-Bulb {BasedOnField A3}
  98875,                                  ! Barometric Pressure {Pa}
  4.3,                                    ! Wind Speed {m/s}
  0,                                      ! Wind Direction {deg}
  0,                                      ! Sky Clearness
  0,                                      ! Rain Indicator
  0,                                      ! Snow Indicator
  21,                                     ! Day of Month
  1,                                      ! Month
  WinterDesignDay,                        ! Day Type
  0,                                      ! Daylight Saving Time Indicator
  Wetbulb,                                ! Humidity Indicating Type
  ,                                       ! Humidity Indicating Day Schedule Name
  DefaultMultipliers,                     ! Dry-Bulb Temperature Range Modifier Type
  ,                                       ! Dry-Bulb Temperature Range Modifier Schedule Name
  ASHRAEClearSky;                         ! Solar Model Indicator

OS:ComponentData,
  {dd2bc8c5-cb6b-4528-a48d-114ea3342d4b}, ! Handle
  Component Data 1,                       ! Name
  {f0f64210-6581-4d19-a803-1dcbd7d9e76b}, ! UUID
  {848c4795-db85-4278-a160-4b12043636aa}, ! Version UUID
  1366309952,                             ! Creation Timestamp
  1366309952,                             ! Version Timestamp
  {3fbcdec1-80f2-4e4b-a292-67cff7df19f5}; ! Name of Object 1

