
OS:Version,
  {4c95943b-f121-418a-835f-e5c1aeabdcc7}, ! Handle
  0.9.3;                                  ! Version Identifier

OS:SizingPeriod:DesignDay,
  {ba96b019-ec00-44ff-9147-8c1aa6714501}, ! Handle
  Miami Kendall Tamia Ann Clg .4% Condns Enth=>MDB, ! Name
  30.8,                                   ! Maximum Dry-Bulb Temperature {C}
  8.4,                                    ! Daily Dry-Bulb Temperature Range {deltaC}
  83500,                                  ! Humidity Indicating Conditions at Maximum Dry-Bulb {BasedOnField A3}
  101289,                                 ! Barometric Pressure {Pa}
  4.7,                                    ! Wind Speed {m/s}
  120,                                    ! Wind Direction {deg}
  0,                                      ! Sky Clearness
  0,                                      ! Rain Indicator
  0,                                      ! Snow Indicator
  21,                                     ! Day of Month
  8,                                      ! Month
  SummerDesignDay,                        ! Day Type
  0,                                      ! Daylight Saving Time Indicator
  Enthalpy,                               ! Humidity Indicating Type
  ,                                       ! Humidity Indicating Day Schedule Name
  DefaultMultipliers,                     ! Dry-Bulb Temperature Range Modifier Type
  ,                                       ! Dry-Bulb Temperature Range Modifier Schedule Name
  ASHRAETau,                              ! Solar Model Indicator
  ,                                       ! Beam Solar Day Schedule Name
  ,                                       ! Diffuse Solar Day Schedule Name
  0.51,                                   ! ASHRAE Taub {dimensionless}
  1.967;                                  ! ASHRAE Taud {dimensionless}

