
OS:Version,
  {26549103-6e5d-4a30-9fcc-f8e347d270f9}, ! Handle
  0.9.3;                                  ! Version Identifier

OS:SizingPeriod:DesignDay,
  {349a90d3-578c-42ab-9fb0-ec9c97e8015e}, ! Handle
  Truth Or Consequences Muni Ap Ann Hum_n 99.6% Condns DP=>MCDB, ! Name
  4.2,                                    ! Maximum Dry-Bulb Temperature {C}
  0,                                      ! Daily Dry-Bulb Temperature Range {deltaC}
  -19.7,                                  ! Humidity Indicating Conditions at Maximum Dry-Bulb {BasedOnField A3}
  84784,                                  ! Barometric Pressure {Pa}
  3.5,                                    ! Wind Speed {m/s}
  10,                                     ! Wind Direction {deg}
  0,                                      ! Sky Clearness
  0,                                      ! Rain Indicator
  0,                                      ! Snow Indicator
  21,                                     ! Day of Month
  12,                                     ! Month
  WinterDesignDay,                        ! Day Type
  0,                                      ! Daylight Saving Time Indicator
  Dewpoint,                               ! Humidity Indicating Type
  ,                                       ! Humidity Indicating Day Schedule Name
  DefaultMultipliers,                     ! Dry-Bulb Temperature Range Modifier Type
  ,                                       ! Dry-Bulb Temperature Range Modifier Schedule Name
  ASHRAEClearSky;                         ! Solar Model Indicator

OS:ComponentData,
  {5b7904fd-ecbd-49bb-a5ec-819849720f64}, ! Handle
  Component Data 1,                       ! Name
  {a5a33032-848e-45b5-b2d6-f69399ecc6cb}, ! UUID
  {31dfb2e3-246c-4f3c-b11a-bd51052c879a}, ! Version UUID
  1366309448,                             ! Creation Timestamp
  1366309448,                             ! Version Timestamp
  {349a90d3-578c-42ab-9fb0-ec9c97e8015e}; ! Name of Object 1

