
OS:Version,
  {7e5ec422-d329-44ff-b033-bdd7cc7f670e}, ! Handle
  0.9.3;                                  ! Version Identifier

OS:SizingPeriod:DesignDay,
  {7127178f-2e1f-4109-946d-5cfe73523d94}, ! Handle
  MACON Ann Clg 1% Condns Enth=>MDB,      ! Name
  31.9,                                   ! Maximum Dry-Bulb Temperature {C}
  11.1,                                   ! Daily Dry-Bulb Temperature Range {deltaC}
  79000,                                  ! Humidity Indicating Conditions at Maximum Dry-Bulb {BasedOnField A3}
  100011,                                 ! Barometric Pressure {Pa}
  3.6,                                    ! Wind Speed {m/s}
  300,                                    ! Wind Direction {deg}
  0,                                      ! Sky Clearness
  0,                                      ! Rain Indicator
  0,                                      ! Snow Indicator
  21,                                     ! Day of Month
  7,                                      ! Month
  SummerDesignDay,                        ! Day Type
  0,                                      ! Daylight Saving Time Indicator
  Enthalpy,                               ! Humidity Indicating Type
  ,                                       ! Humidity Indicating Day Schedule Name
  DefaultMultipliers,                     ! Dry-Bulb Temperature Range Modifier Type
  ,                                       ! Dry-Bulb Temperature Range Modifier Schedule Name
  ASHRAETau,                              ! Solar Model Indicator
  ,                                       ! Beam Solar Day Schedule Name
  ,                                       ! Diffuse Solar Day Schedule Name
  0.549,                                  ! ASHRAE Taub {dimensionless}
  1.812;                                  ! ASHRAE Taud {dimensionless}

OS:ComponentData,
  {16bbb71c-56c9-46c4-908c-aa7588ff796f}, ! Handle
  Component Data 1,                       ! Name
  {f009bd09-a471-4153-a7c1-11bab0cd2c29}, ! UUID
  {bae26886-3969-4288-871e-82eff70e775e}, ! Version UUID
  1366307028,                             ! Creation Timestamp
  1366307028,                             ! Version Timestamp
  {7127178f-2e1f-4109-946d-5cfe73523d94}; ! Name of Object 1

