
OS:Version,
  {63b862fe-9e2d-4ed0-80c3-0c92ae9f90f8}, ! Handle
  0.9.3;                                  ! Version Identifier

OS:SizingPeriod:DesignDay,
  {128aaf6b-e7c3-4aa0-82b3-cead69937416}, ! Handle
  Peoria Greater Peoria Ap Ann Htg Wind 99% Condns WS=>MCDB, ! Name
  -6.7,                                   ! Maximum Dry-Bulb Temperature {C}
  0,                                      ! Daily Dry-Bulb Temperature Range {deltaC}
  -6.7,                                   ! Humidity Indicating Conditions at Maximum Dry-Bulb {BasedOnField A3}
  98957,                                  ! Barometric Pressure {Pa}
  11.4,                                   ! Wind Speed {m/s}
  280,                                    ! Wind Direction {deg}
  0,                                      ! Sky Clearness
  0,                                      ! Rain Indicator
  0,                                      ! Snow Indicator
  21,                                     ! Day of Month
  1,                                      ! Month
  WinterDesignDay,                        ! Day Type
  0,                                      ! Daylight Saving Time Indicator
  Wetbulb,                                ! Humidity Indicating Type
  ,                                       ! Humidity Indicating Day Schedule Name
  DefaultMultipliers,                     ! Dry-Bulb Temperature Range Modifier Type
  ,                                       ! Dry-Bulb Temperature Range Modifier Schedule Name
  ASHRAEClearSky;                         ! Solar Model Indicator

OS:ComponentData,
  {97903813-b207-4aef-9fdb-11eabb38c826}, ! Handle
  Component Data 1,                       ! Name
  {7a28d93e-660b-4ba7-9767-bf8982bf9603}, ! UUID
  {0dc45f50-71d5-4a64-be35-4a27865fe7f5}, ! Version UUID
  1366307380,                             ! Creation Timestamp
  1366307380,                             ! Version Timestamp
  {128aaf6b-e7c3-4aa0-82b3-cead69937416}; ! Name of Object 1

