
OS:Version,
  {330f6550-6d89-4a11-95d0-8af696c7b67b}, ! Handle
  0.9.3;                                  ! Version Identifier

OS:SizingPeriod:DesignDay,
  {ee517160-378a-47d3-8e9f-23919bf8ca13}, ! Handle
  Sault Ste Marie Sanderson Fie Ann Clg .4% Condns Enth=>MDB, ! Name
  26.9,                                   ! Maximum Dry-Bulb Temperature {C}
  11.7,                                   ! Daily Dry-Bulb Temperature Range {deltaC}
  67100,                                  ! Humidity Indicating Conditions at Maximum Dry-Bulb {BasedOnField A3}
  98722,                                  ! Barometric Pressure {Pa}
  4.2,                                    ! Wind Speed {m/s}
  220,                                    ! Wind Direction {deg}
  0,                                      ! Sky Clearness
  0,                                      ! Rain Indicator
  0,                                      ! Snow Indicator
  21,                                     ! Day of Month
  7,                                      ! Month
  SummerDesignDay,                        ! Day Type
  0,                                      ! Daylight Saving Time Indicator
  Enthalpy,                               ! Humidity Indicating Type
  ,                                       ! Humidity Indicating Day Schedule Name
  DefaultMultipliers,                     ! Dry-Bulb Temperature Range Modifier Type
  ,                                       ! Dry-Bulb Temperature Range Modifier Schedule Name
  ASHRAETau,                              ! Solar Model Indicator
  ,                                       ! Beam Solar Day Schedule Name
  ,                                       ! Diffuse Solar Day Schedule Name
  0.412,                                  ! ASHRAE Taub {dimensionless}
  2.194;                                  ! ASHRAE Taud {dimensionless}

OS:ComponentData,
  {520651b2-82db-474b-b0dc-1bab73166c61}, ! Handle
  Component Data 1,                       ! Name
  {cc98e92b-b320-4eac-8b5c-20918f453fcb}, ! UUID
  {197fa65d-d976-4631-8e99-16c0a02426ac}, ! Version UUID
  1366308107,                             ! Creation Timestamp
  1366308107,                             ! Version Timestamp
  {ee517160-378a-47d3-8e9f-23919bf8ca13}; ! Name of Object 1

