
OS:Version,
  {159cf6f8-e22e-402e-8be3-998c5ab3297c}, ! Handle
  0.9.3;                                  ! Version Identifier

OS:SizingPeriod:DesignDay,
  {cc981a4a-7cb0-4930-b8ec-81745c22623f}, ! Handle
  New Bern Craven Co Regl Ap Ann Htg 99.6% Condns DB, ! Name
  -5.3,                                   ! Maximum Dry-Bulb Temperature {C}
  0,                                      ! Daily Dry-Bulb Temperature Range {deltaC}
  -5.3,                                   ! Humidity Indicating Conditions at Maximum Dry-Bulb {BasedOnField A3}
  101265,                                 ! Barometric Pressure {Pa}
  2.3,                                    ! Wind Speed {m/s}
  10,                                     ! Wind Direction {deg}
  0,                                      ! Sky Clearness
  0,                                      ! Rain Indicator
  0,                                      ! Snow Indicator
  21,                                     ! Day of Month
  1,                                      ! Month
  WinterDesignDay,                        ! Day Type
  0,                                      ! Daylight Saving Time Indicator
  Wetbulb,                                ! Humidity Indicating Type
  ,                                       ! Humidity Indicating Day Schedule Name
  DefaultMultipliers,                     ! Dry-Bulb Temperature Range Modifier Type
  ,                                       ! Dry-Bulb Temperature Range Modifier Schedule Name
  ASHRAEClearSky;                         ! Solar Model Indicator

OS:ComponentData,
  {6c8e685e-c3a1-497b-b720-793c5b354c90}, ! Handle
  Component Data 1,                       ! Name
  {b1ff3ae9-82fd-4621-b2b5-adce02df107f}, ! UUID
  {80d60c8b-49ec-49f0-acd1-5b4b3547c4c7}, ! Version UUID
  1366308951,                             ! Creation Timestamp
  1366308951,                             ! Version Timestamp
  {cc981a4a-7cb0-4930-b8ec-81745c22623f}; ! Name of Object 1

