
OS:Version,
  {aa8d6584-0bd8-4883-adad-10ce7efadb4a}, ! Handle
  0.9.3;                                  ! Version Identifier

OS:SizingPeriod:DesignDay,
  {23675a41-e8b1-4b10-a8c5-21b4f0ad3c7b}, ! Handle
  Marshall Ryan Awos Ann Htg Wind 99.6% Condns WS=>MCDB, ! Name
  -10.3,                                  ! Maximum Dry-Bulb Temperature {C}
  0,                                      ! Daily Dry-Bulb Temperature Range {deltaC}
  -10.3,                                  ! Humidity Indicating Conditions at Maximum Dry-Bulb {BasedOnField A3}
  97086,                                  ! Barometric Pressure {Pa}
  17,                                     ! Wind Speed {m/s}
  320,                                    ! Wind Direction {deg}
  0,                                      ! Sky Clearness
  0,                                      ! Rain Indicator
  0,                                      ! Snow Indicator
  21,                                     ! Day of Month
  1,                                      ! Month
  WinterDesignDay,                        ! Day Type
  0,                                      ! Daylight Saving Time Indicator
  Wetbulb,                                ! Humidity Indicating Type
  ,                                       ! Humidity Indicating Day Schedule Name
  DefaultMultipliers,                     ! Dry-Bulb Temperature Range Modifier Type
  ,                                       ! Dry-Bulb Temperature Range Modifier Schedule Name
  ASHRAEClearSky;                         ! Solar Model Indicator

OS:ComponentData,
  {3620f431-348b-4674-8b8e-caea9247912a}, ! Handle
  Component Data 1,                       ! Name
  {cce9405c-a005-402c-bb66-ed6c2a718672}, ! UUID
  {f2451c54-d4b1-4528-94fd-817a18794031}, ! Version UUID
  1366308298,                             ! Creation Timestamp
  1366308298,                             ! Version Timestamp
  {23675a41-e8b1-4b10-a8c5-21b4f0ad3c7b}; ! Name of Object 1

