
OS:Version,
  {acc81abb-4fa9-48b6-9489-a1478b88daf2}, ! Handle
  0.9.3;                                  ! Version Identifier

OS:SizingPeriod:DesignDay,
  {a8a943c8-cc31-494d-b4e1-67a406f5fef7}, ! Handle
  Robert Gray Aaf Ann Htg Wind 99.6% Condns WS=>MCDB, ! Name
  11.5,                                   ! Maximum Dry-Bulb Temperature {C}
  0,                                      ! Daily Dry-Bulb Temperature Range {deltaC}
  11.5,                                   ! Humidity Indicating Conditions at Maximum Dry-Bulb {BasedOnField A3}
  97633,                                  ! Barometric Pressure {Pa}
  11.5,                                   ! Wind Speed {m/s}
  350,                                    ! Wind Direction {deg}
  0,                                      ! Sky Clearness
  0,                                      ! Rain Indicator
  0,                                      ! Snow Indicator
  21,                                     ! Day of Month
  1,                                      ! Month
  WinterDesignDay,                        ! Day Type
  0,                                      ! Daylight Saving Time Indicator
  Wetbulb,                                ! Humidity Indicating Type
  ,                                       ! Humidity Indicating Day Schedule Name
  DefaultMultipliers,                     ! Dry-Bulb Temperature Range Modifier Type
  ,                                       ! Dry-Bulb Temperature Range Modifier Schedule Name
  ASHRAEClearSky;                         ! Solar Model Indicator

OS:ComponentData,
  {e0813713-4b14-4817-954d-9514b761a357}, ! Handle
  Component Data 1,                       ! Name
  {4a0ce1a5-db71-4172-bc8a-0ccd3b1f916e}, ! UUID
  {7819f94f-23f0-457b-8fd2-19d68ef16bbe}, ! Version UUID
  1366310763,                             ! Creation Timestamp
  1366310763,                             ! Version Timestamp
  {a8a943c8-cc31-494d-b4e1-67a406f5fef7}; ! Name of Object 1

