
OS:Version,
  {5088609c-1ee9-43b6-b84b-44da6e47eda8}, ! Handle
  0.9.3;                                  ! Version Identifier

OS:SizingPeriod:DesignDay,
  {5adbe193-7a8c-4e1e-a87e-d6a3f106c675}, ! Handle
  Sterling/Washington Du Ann Clg .4% Condns WB=>MDB, ! Name
  31.6,                                   ! Maximum Dry-Bulb Temperature {C}
  11.4,                                   ! Daily Dry-Bulb Temperature Range {deltaC}
  25.4,                                   ! Humidity Indicating Conditions at Maximum Dry-Bulb {BasedOnField A3}
  100153,                                 ! Barometric Pressure {Pa}
  4,                                      ! Wind Speed {m/s}
  290,                                    ! Wind Direction {deg}
  0,                                      ! Sky Clearness
  0,                                      ! Rain Indicator
  0,                                      ! Snow Indicator
  21,                                     ! Day of Month
  7,                                      ! Month
  SummerDesignDay,                        ! Day Type
  0,                                      ! Daylight Saving Time Indicator
  Wetbulb,                                ! Humidity Indicating Type
  ,                                       ! Humidity Indicating Day Schedule Name
  DefaultMultipliers,                     ! Dry-Bulb Temperature Range Modifier Type
  ,                                       ! Dry-Bulb Temperature Range Modifier Schedule Name
  ASHRAETau,                              ! Solar Model Indicator
  ,                                       ! Beam Solar Day Schedule Name
  ,                                       ! Diffuse Solar Day Schedule Name
  0.544,                                  ! ASHRAE Taub {dimensionless}
  1.787;                                  ! ASHRAE Taud {dimensionless}

OS:ComponentData,
  {0f506917-127d-4bfd-b018-58ce1ed4a96c}, ! Handle
  Component Data 1,                       ! Name
  {4a9101bc-42f7-4a69-bd48-5fde758e1423}, ! UUID
  {a8e23a97-4865-4246-8404-164644e66a1c}, ! Version UUID
  1366311209,                             ! Creation Timestamp
  1366311209,                             ! Version Timestamp
  {5adbe193-7a8c-4e1e-a87e-d6a3f106c675}; ! Name of Object 1

