
OS:Version,
  {04b30f0d-6ea5-4c50-8dcc-1efdc5bc9021}, ! Handle
  0.9.3;                                  ! Version Identifier

OS:SizingPeriod:DesignDay,
  {c433722c-656a-4962-a8f9-9cd4df18e845}, ! Handle
  Marthas Vineyard Ann Clg 2% Condns DB=>MWB, ! Name
  26,                                     ! Maximum Dry-Bulb Temperature {C}
  9.4,                                    ! Daily Dry-Bulb Temperature Range {deltaC}
  21,                                     ! Humidity Indicating Conditions at Maximum Dry-Bulb {BasedOnField A3}
  101073,                                 ! Barometric Pressure {Pa}
  4.6,                                    ! Wind Speed {m/s}
  220,                                    ! Wind Direction {deg}
  0,                                      ! Sky Clearness
  0,                                      ! Rain Indicator
  0,                                      ! Snow Indicator
  21,                                     ! Day of Month
  8,                                      ! Month
  SummerDesignDay,                        ! Day Type
  0,                                      ! Daylight Saving Time Indicator
  Wetbulb,                                ! Humidity Indicating Type
  ,                                       ! Humidity Indicating Day Schedule Name
  DefaultMultipliers,                     ! Dry-Bulb Temperature Range Modifier Type
  ,                                       ! Dry-Bulb Temperature Range Modifier Schedule Name
  ASHRAETau,                              ! Solar Model Indicator
  ,                                       ! Beam Solar Day Schedule Name
  ,                                       ! Diffuse Solar Day Schedule Name
  0.469,                                  ! ASHRAE Taub {dimensionless}
  2.004;                                  ! ASHRAE Taud {dimensionless}

OS:ComponentData,
  {22d8dd1b-8492-496f-b163-125ac32df3cd}, ! Handle
  Component Data 1,                       ! Name
  {e80267e6-a697-4242-b7ec-8b36696456e8}, ! UUID
  {9b3f60fc-3838-4818-8fd4-9a5dbd3a2987}, ! Version UUID
  1366307801,                             ! Creation Timestamp
  1366307801,                             ! Version Timestamp
  {c433722c-656a-4962-a8f9-9cd4df18e845}; ! Name of Object 1

