
OS:Version,
  {b9c88f6f-926c-4148-a7b4-2017013d9ed1}, ! Handle
  0.9.3;                                  ! Version Identifier

OS:SizingPeriod:DesignDay,
  {2de55998-df4f-43ad-bb90-8fe2064ff27a}, ! Handle
  Panama City Bay Co Ann Clg .4% Condns Enth=>MDB, ! Name
  30.2,                                   ! Maximum Dry-Bulb Temperature {C}
  7.6,                                    ! Daily Dry-Bulb Temperature Range {deltaC}
  86800,                                  ! Humidity Indicating Conditions at Maximum Dry-Bulb {BasedOnField A3}
  101253,                                 ! Barometric Pressure {Pa}
  4.1,                                    ! Wind Speed {m/s}
  260,                                    ! Wind Direction {deg}
  0,                                      ! Sky Clearness
  0,                                      ! Rain Indicator
  0,                                      ! Snow Indicator
  21,                                     ! Day of Month
  7,                                      ! Month
  SummerDesignDay,                        ! Day Type
  0,                                      ! Daylight Saving Time Indicator
  Enthalpy,                               ! Humidity Indicating Type
  ,                                       ! Humidity Indicating Day Schedule Name
  DefaultMultipliers,                     ! Dry-Bulb Temperature Range Modifier Type
  ,                                       ! Dry-Bulb Temperature Range Modifier Schedule Name
  ASHRAETau,                              ! Solar Model Indicator
  ,                                       ! Beam Solar Day Schedule Name
  ,                                       ! Diffuse Solar Day Schedule Name
  0.522,                                  ! ASHRAE Taub {dimensionless}
  1.923;                                  ! ASHRAE Taud {dimensionless}

OS:ComponentData,
  {c8e6bc5f-8e35-47aa-8c39-c6470ff23a32}, ! Handle
  Component Data 1,                       ! Name
  {842fe93f-3c53-4b7d-bb2e-64b3b626181a}, ! UUID
  {72f706c7-1b9d-4d7c-a97b-baf894bd8165}, ! Version UUID
  1366306899,                             ! Creation Timestamp
  1366306899,                             ! Version Timestamp
  {2de55998-df4f-43ad-bb90-8fe2064ff27a}; ! Name of Object 1

