
OS:Version,
  {8087b0bb-2191-4ec1-b172-04624a29ba1e}, ! Handle
  0.9.3;                                  ! Version Identifier

OS:SizingPeriod:DesignDay,
  {891f8479-67f1-4703-ad63-7c8baedb279e}, ! Handle
  Philadelphia Ne Philadelphia Ann Clg .4% Condns WB=>MDB, ! Name
  31.6,                                   ! Maximum Dry-Bulb Temperature {C}
  10.3,                                   ! Daily Dry-Bulb Temperature Range {deltaC}
  26,                                     ! Humidity Indicating Conditions at Maximum Dry-Bulb {BasedOnField A3}
  100965,                                 ! Barometric Pressure {Pa}
  4.4,                                    ! Wind Speed {m/s}
  300,                                    ! Wind Direction {deg}
  0,                                      ! Sky Clearness
  0,                                      ! Rain Indicator
  0,                                      ! Snow Indicator
  21,                                     ! Day of Month
  7,                                      ! Month
  SummerDesignDay,                        ! Day Type
  0,                                      ! Daylight Saving Time Indicator
  Wetbulb,                                ! Humidity Indicating Type
  ,                                       ! Humidity Indicating Day Schedule Name
  DefaultMultipliers,                     ! Dry-Bulb Temperature Range Modifier Type
  ,                                       ! Dry-Bulb Temperature Range Modifier Schedule Name
  ASHRAETau,                              ! Solar Model Indicator
  ,                                       ! Beam Solar Day Schedule Name
  ,                                       ! Diffuse Solar Day Schedule Name
  0.537,                                  ! ASHRAE Taub {dimensionless}
  1.806;                                  ! ASHRAE Taud {dimensionless}

OS:ComponentData,
  {b9cf9c2c-072a-4e94-a822-1245e69d318a}, ! Handle
  Component Data 1,                       ! Name
  {e0052668-ccae-4ccb-97b9-ed08885f5193}, ! UUID
  {481471d7-ad35-4c11-8b17-aa3bd066c580}, ! Version UUID
  1366310207,                             ! Creation Timestamp
  1366310207,                             ! Version Timestamp
  {891f8479-67f1-4703-ad63-7c8baedb279e}; ! Name of Object 1

