
OS:Version,
  {8b15a17c-4f17-43b3-8310-f28b3364dbd4}, ! Handle
  0.9.3;                                  ! Version Identifier

OS:SizingPeriod:DesignDay,
  {1e372751-cd3d-43e8-a44c-025bc1c4c780}, ! Handle
  Rochester Greater Rochester I Ann Clg .4% Condns Enth=>MDB, ! Name
  29.3,                                   ! Maximum Dry-Bulb Temperature {C}
  10.7,                                   ! Daily Dry-Bulb Temperature Range {deltaC}
  73500,                                  ! Humidity Indicating Conditions at Maximum Dry-Bulb {BasedOnField A3}
  99146,                                  ! Barometric Pressure {Pa}
  5.2,                                    ! Wind Speed {m/s}
  240,                                    ! Wind Direction {deg}
  0,                                      ! Sky Clearness
  0,                                      ! Rain Indicator
  0,                                      ! Snow Indicator
  21,                                     ! Day of Month
  7,                                      ! Month
  SummerDesignDay,                        ! Day Type
  0,                                      ! Daylight Saving Time Indicator
  Enthalpy,                               ! Humidity Indicating Type
  ,                                       ! Humidity Indicating Day Schedule Name
  DefaultMultipliers,                     ! Dry-Bulb Temperature Range Modifier Type
  ,                                       ! Dry-Bulb Temperature Range Modifier Schedule Name
  ASHRAETau,                              ! Solar Model Indicator
  ,                                       ! Beam Solar Day Schedule Name
  ,                                       ! Diffuse Solar Day Schedule Name
  0.463,                                  ! ASHRAE Taub {dimensionless}
  2.001;                                  ! ASHRAE Taud {dimensionless}

OS:ComponentData,
  {c55b4938-0c57-4d7d-bb7b-8148957cd82e}, ! Handle
  Component Data 1,                       ! Name
  {102ed8c8-15e0-4966-bf65-235b3894b2dd}, ! UUID
  {a170e804-a327-48a2-92d4-25b578f28220}, ! Version UUID
  1366309719,                             ! Creation Timestamp
  1366309719,                             ! Version Timestamp
  {1e372751-cd3d-43e8-a44c-025bc1c4c780}; ! Name of Object 1

