
OS:Version,
  {696659d2-52ca-4c94-97bc-79ac9b5cb767}, ! Handle
  0.9.3;                                  ! Version Identifier

OS:SizingPeriod:DesignDay,
  {12ecdf09-632a-4357-85ff-d8f8c4df127a}, ! Handle
  Scottsbluff W B Heilig Field Ann Htg 99.6% Condns DB, ! Name
  -22.9,                                  ! Maximum Dry-Bulb Temperature {C}
  0,                                      ! Daily Dry-Bulb Temperature Range {deltaC}
  -22.9,                                  ! Humidity Indicating Conditions at Maximum Dry-Bulb {BasedOnField A3}
  87694,                                  ! Barometric Pressure {Pa}
  3.3,                                    ! Wind Speed {m/s}
  300,                                    ! Wind Direction {deg}
  0,                                      ! Sky Clearness
  0,                                      ! Rain Indicator
  0,                                      ! Snow Indicator
  21,                                     ! Day of Month
  12,                                     ! Month
  WinterDesignDay,                        ! Day Type
  0,                                      ! Daylight Saving Time Indicator
  Wetbulb,                                ! Humidity Indicating Type
  ,                                       ! Humidity Indicating Day Schedule Name
  DefaultMultipliers,                     ! Dry-Bulb Temperature Range Modifier Type
  ,                                       ! Dry-Bulb Temperature Range Modifier Schedule Name
  ASHRAEClearSky;                         ! Solar Model Indicator

OS:ComponentData,
  {dd9a0792-3a11-469c-b499-dc37c0cf0e4c}, ! Handle
  Component Data 1,                       ! Name
  {20ece445-9c44-48ff-a01c-2a031ddea993}, ! UUID
  {71b7a123-624d-4fd7-9f8c-0a07818b1a0e}, ! Version UUID
  1366309193,                             ! Creation Timestamp
  1366309193,                             ! Version Timestamp
  {12ecdf09-632a-4357-85ff-d8f8c4df127a}; ! Name of Object 1

