
OS:Version,
  {501ed1f5-a957-4a5b-a8b2-e534ff8aa09d}, ! Handle
  0.9.3;                                  ! Version Identifier

OS:SizingPeriod:DesignDay,
  {1a36440c-8057-49f2-944e-2cabced2df77}, ! Handle
  WINNEMUCCA Ann Clg 2% Condns DB=>MWB,   ! Name
  33.6,                                   ! Maximum Dry-Bulb Temperature {C}
  21.5,                                   ! Daily Dry-Bulb Temperature Range {deltaC}
  15.6,                                   ! Humidity Indicating Conditions at Maximum Dry-Bulb {BasedOnField A3}
  86409,                                  ! Barometric Pressure {Pa}
  4.4,                                    ! Wind Speed {m/s}
  240,                                    ! Wind Direction {deg}
  0,                                      ! Sky Clearness
  0,                                      ! Rain Indicator
  0,                                      ! Snow Indicator
  21,                                     ! Day of Month
  7,                                      ! Month
  SummerDesignDay,                        ! Day Type
  0,                                      ! Daylight Saving Time Indicator
  Wetbulb,                                ! Humidity Indicating Type
  ,                                       ! Humidity Indicating Day Schedule Name
  DefaultMultipliers,                     ! Dry-Bulb Temperature Range Modifier Type
  ,                                       ! Dry-Bulb Temperature Range Modifier Schedule Name
  ASHRAETau,                              ! Solar Model Indicator
  ,                                       ! Beam Solar Day Schedule Name
  ,                                       ! Diffuse Solar Day Schedule Name
  0.441,                                  ! ASHRAE Taub {dimensionless}
  1.893;                                  ! ASHRAE Taud {dimensionless}

OS:ComponentData,
  {d9b70eb6-fb5e-4eb0-b339-3343dd9e1ab4}, ! Handle
  Component Data 1,                       ! Name
  {40e23210-5133-4665-bf3c-492b4ddf54cb}, ! UUID
  {fdfdb71d-f1e6-4e9b-89cd-29f01697f0e7}, ! Version UUID
  1366309559,                             ! Creation Timestamp
  1366309559,                             ! Version Timestamp
  {1a36440c-8057-49f2-944e-2cabced2df77}; ! Name of Object 1

