
OS:Version,
  {5286db84-1d6a-4002-a9cd-100f6e984b42}, ! Handle
  0.9.3;                                  ! Version Identifier

OS:SizingPeriod:DesignDay,
  {33d82d27-6bf4-4598-a341-eacfa8d68657}, ! Handle
  Springfield Ann Clg 2% Condns DP=>MDB,  ! Name
  27.3,                                   ! Maximum Dry-Bulb Temperature {C}
  11,                                     ! Daily Dry-Bulb Temperature Range {deltaC}
  22.4,                                   ! Humidity Indicating Conditions at Maximum Dry-Bulb {BasedOnField A3}
  96761,                                  ! Barometric Pressure {Pa}
  3.9,                                    ! Wind Speed {m/s}
  180,                                    ! Wind Direction {deg}
  0,                                      ! Sky Clearness
  0,                                      ! Rain Indicator
  0,                                      ! Snow Indicator
  21,                                     ! Day of Month
  7,                                      ! Month
  SummerDesignDay,                        ! Day Type
  0,                                      ! Daylight Saving Time Indicator
  Dewpoint,                               ! Humidity Indicating Type
  ,                                       ! Humidity Indicating Day Schedule Name
  DefaultMultipliers,                     ! Dry-Bulb Temperature Range Modifier Type
  ,                                       ! Dry-Bulb Temperature Range Modifier Schedule Name
  ASHRAETau,                              ! Solar Model Indicator
  ,                                       ! Beam Solar Day Schedule Name
  ,                                       ! Diffuse Solar Day Schedule Name
  0.448,                                  ! ASHRAE Taub {dimensionless}
  2.097;                                  ! ASHRAE Taud {dimensionless}

OS:ComponentData,
  {2ecb4229-f7cd-43a2-9c20-44528044e368}, ! Handle
  Component Data 1,                       ! Name
  {fe0eee2c-ada2-4e8a-8e2a-75e12af8aab4}, ! UUID
  {1794fc9b-f3b8-4422-a654-87d851006c90}, ! Version UUID
  1366308566,                             ! Creation Timestamp
  1366308566,                             ! Version Timestamp
  {33d82d27-6bf4-4598-a341-eacfa8d68657}; ! Name of Object 1

