
OS:Version,
  {459af5a6-739f-410f-a210-bce213291993}, ! Handle
  0.9.3;                                  ! Version Identifier

OS:SizingPeriod:DesignDay,
  {c77a4a5f-3a1e-4f6d-a340-4ba64a52b071}, ! Handle
  Nashville Ann Clg .4% Condns DB=>MWB,   ! Name
  34.7,                                   ! Maximum Dry-Bulb Temperature {C}
  10.2,                                   ! Daily Dry-Bulb Temperature Range {deltaC}
  23.9,                                   ! Humidity Indicating Conditions at Maximum Dry-Bulb {BasedOnField A3}
  99181,                                  ! Barometric Pressure {Pa}
  3.5,                                    ! Wind Speed {m/s}
  230,                                    ! Wind Direction {deg}
  0,                                      ! Sky Clearness
  0,                                      ! Rain Indicator
  0,                                      ! Snow Indicator
  21,                                     ! Day of Month
  7,                                      ! Month
  SummerDesignDay,                        ! Day Type
  0,                                      ! Daylight Saving Time Indicator
  Wetbulb,                                ! Humidity Indicating Type
  ,                                       ! Humidity Indicating Day Schedule Name
  DefaultMultipliers,                     ! Dry-Bulb Temperature Range Modifier Type
  ,                                       ! Dry-Bulb Temperature Range Modifier Schedule Name
  ASHRAETau,                              ! Solar Model Indicator
  ,                                       ! Beam Solar Day Schedule Name
  ,                                       ! Diffuse Solar Day Schedule Name
  0.524,                                  ! ASHRAE Taub {dimensionless}
  1.855;                                  ! ASHRAE Taud {dimensionless}

OS:ComponentData,
  {feb23fd9-370c-4875-940e-85888cb2e4c4}, ! Handle
  Component Data 1,                       ! Name
  {f1b61197-5f10-4276-8b95-421b6ae53ec5}, ! UUID
  {0c57c5d0-c05f-47b1-811f-22f1078be1c9}, ! Version UUID
  1366310538,                             ! Creation Timestamp
  1366310538,                             ! Version Timestamp
  {c77a4a5f-3a1e-4f6d-a340-4ba64a52b071}; ! Name of Object 1

