
OS:Version,
  {132ed022-be9a-4312-ab56-439f6aa43107}, ! Handle
  0.9.3;                                  ! Version Identifier

OS:SizingPeriod:DesignDay,
  {3cd57dba-124c-4069-a639-42d4485ab00e}, ! Handle
  Winnemucca Municipal Arpt Ann Hum_n 99.6% Condns DP=>MCDB, ! Name
  -13.2,                                  ! Maximum Dry-Bulb Temperature {C}
  0,                                      ! Daily Dry-Bulb Temperature Range {deltaC}
  -19.3,                                  ! Humidity Indicating Conditions at Maximum Dry-Bulb {BasedOnField A3}
  86546,                                  ! Barometric Pressure {Pa}
  2,                                      ! Wind Speed {m/s}
  160,                                    ! Wind Direction {deg}
  0,                                      ! Sky Clearness
  0,                                      ! Rain Indicator
  0,                                      ! Snow Indicator
  21,                                     ! Day of Month
  12,                                     ! Month
  WinterDesignDay,                        ! Day Type
  0,                                      ! Daylight Saving Time Indicator
  Dewpoint,                               ! Humidity Indicating Type
  ,                                       ! Humidity Indicating Day Schedule Name
  DefaultMultipliers,                     ! Dry-Bulb Temperature Range Modifier Type
  ,                                       ! Dry-Bulb Temperature Range Modifier Schedule Name
  ASHRAEClearSky;                         ! Solar Model Indicator

OS:ComponentData,
  {362d4ed0-b74a-40a0-9729-dc01997f8d34}, ! Handle
  Component Data 1,                       ! Name
  {aba4c1c8-9c07-4658-8106-eed80370ee9f}, ! UUID
  {60e34df8-14d3-41a6-ac29-870b93c4c015}, ! Version UUID
  1366309568,                             ! Creation Timestamp
  1366309568,                             ! Version Timestamp
  {3cd57dba-124c-4069-a639-42d4485ab00e}; ! Name of Object 1

