
OS:Version,
  {019b34e0-765e-4002-aa0e-340fe0997397}, ! Handle
  0.9.3;                                  ! Version Identifier

OS:SizingPeriod:DesignDay,
  {5a8500c8-0170-466e-a728-7b004e56a099}, ! Handle
  West Palm Beach Intl Arpt Ann Htg 99.6% Condns DB, ! Name
  6.8,                                    ! Maximum Dry-Bulb Temperature {C}
  0,                                      ! Daily Dry-Bulb Temperature Range {deltaC}
  6.8,                                    ! Humidity Indicating Conditions at Maximum Dry-Bulb {BasedOnField A3}
  101253,                                 ! Barometric Pressure {Pa}
  3.9,                                    ! Wind Speed {m/s}
  320,                                    ! Wind Direction {deg}
  0,                                      ! Sky Clearness
  0,                                      ! Rain Indicator
  0,                                      ! Snow Indicator
  21,                                     ! Day of Month
  1,                                      ! Month
  WinterDesignDay,                        ! Day Type
  0,                                      ! Daylight Saving Time Indicator
  Wetbulb,                                ! Humidity Indicating Type
  ,                                       ! Humidity Indicating Day Schedule Name
  DefaultMultipliers,                     ! Dry-Bulb Temperature Range Modifier Type
  ,                                       ! Dry-Bulb Temperature Range Modifier Schedule Name
  ASHRAEClearSky;                         ! Solar Model Indicator

OS:ComponentData,
  {f935a9bd-e444-4788-a223-4c508917a3f6}, ! Handle
  Component Data 1,                       ! Name
  {dbd638c8-c801-4918-95e3-abaaaa0f99fd}, ! UUID
  {3da57189-2bba-41db-968a-5c4b93b01cf7}, ! Version UUID
  1366306953,                             ! Creation Timestamp
  1366306953,                             ! Version Timestamp
  {5a8500c8-0170-466e-a728-7b004e56a099}; ! Name of Object 1

