
OS:Version,
  {a46923de-9cf1-4e5f-8e06-20f2e4223343}, ! Handle
  0.9.3;                                  ! Version Identifier

OS:SizingPeriod:DesignDay,
  {61b1d464-c304-4dfa-a34f-d970e4a19bb9}, ! Handle
  Sacramento/Mather Fiel Ann Clg .4% Condns WB=>MDB, ! Name
  35.5,                                   ! Maximum Dry-Bulb Temperature {C}
  18.1,                                   ! Daily Dry-Bulb Temperature Range {deltaC}
  22.6,                                   ! Humidity Indicating Conditions at Maximum Dry-Bulb {BasedOnField A3}
  100977,                                 ! Barometric Pressure {Pa}
  3.4,                                    ! Wind Speed {m/s}
  220,                                    ! Wind Direction {deg}
  0,                                      ! Sky Clearness
  0,                                      ! Rain Indicator
  0,                                      ! Snow Indicator
  21,                                     ! Day of Month
  7,                                      ! Month
  SummerDesignDay,                        ! Day Type
  0,                                      ! Daylight Saving Time Indicator
  Wetbulb,                                ! Humidity Indicating Type
  ,                                       ! Humidity Indicating Day Schedule Name
  DefaultMultipliers,                     ! Dry-Bulb Temperature Range Modifier Type
  ,                                       ! Dry-Bulb Temperature Range Modifier Schedule Name
  ASHRAETau,                              ! Solar Model Indicator
  ,                                       ! Beam Solar Day Schedule Name
  ,                                       ! Diffuse Solar Day Schedule Name
  0.382,                                  ! ASHRAE Taub {dimensionless}
  2.325;                                  ! ASHRAE Taud {dimensionless}

OS:ComponentData,
  {7db15a26-86c7-495e-9fa3-f9f2d1639d45}, ! Handle
  Component Data 1,                       ! Name
  {d3b3bf0a-77f3-49e4-9083-a5a4372f2e8d}, ! UUID
  {e5616b72-bd16-4faa-bff2-f0fa3ae7b049}, ! Version UUID
  1366306561,                             ! Creation Timestamp
  1366306561,                             ! Version Timestamp
  {61b1d464-c304-4dfa-a34f-d970e4a19bb9}; ! Name of Object 1

