
OS:Version,
  {635df584-8f00-4c32-ba29-a5407fad783e}, ! Handle
  0.9.3;                                  ! Version Identifier

OS:SizingPeriod:DesignDay,
  {8d927105-c1cb-4711-b054-c39d9a1585c8}, ! Handle
  Mcgrath Arpt Ann Clg 2% Condns Enth=>MDB, ! Name
  20.5,                                   ! Maximum Dry-Bulb Temperature {C}
  9.7,                                    ! Daily Dry-Bulb Temperature Range {deltaC}
  42500,                                  ! Humidity Indicating Conditions at Maximum Dry-Bulb {BasedOnField A3}
  100070,                                 ! Barometric Pressure {Pa}
  3.2,                                    ! Wind Speed {m/s}
  0,                                      ! Wind Direction {deg}
  0,                                      ! Sky Clearness
  0,                                      ! Rain Indicator
  0,                                      ! Snow Indicator
  21,                                     ! Day of Month
  7,                                      ! Month
  SummerDesignDay,                        ! Day Type
  0,                                      ! Daylight Saving Time Indicator
  Enthalpy,                               ! Humidity Indicating Type
  ,                                       ! Humidity Indicating Day Schedule Name
  DefaultMultipliers,                     ! Dry-Bulb Temperature Range Modifier Type
  ,                                       ! Dry-Bulb Temperature Range Modifier Schedule Name
  ASHRAETau,                              ! Solar Model Indicator
  ,                                       ! Beam Solar Day Schedule Name
  ,                                       ! Diffuse Solar Day Schedule Name
  0.388,                                  ! ASHRAE Taub {dimensionless}
  2.208;                                  ! ASHRAE Taud {dimensionless}

OS:ComponentData,
  {0ddf74de-2cf1-4759-be1c-76c3cfcc7fd8}, ! Handle
  Component Data 1,                       ! Name
  {a330636e-ccc5-4e39-bbd8-4f2d301a13aa}, ! UUID
  {7ae6fddd-1944-4dd9-8835-1bfb3b9bb46a}, ! Version UUID
  1366305422,                             ! Creation Timestamp
  1366305422,                             ! Version Timestamp
  {8d927105-c1cb-4711-b054-c39d9a1585c8}; ! Name of Object 1

