
OS:Version,
  {0aed55ca-ae5d-4595-8c85-5e421ecccd1d}, ! Handle
  0.9.3;                                  ! Version Identifier

OS:SizingPeriod:DesignDay,
  {350112dc-b561-49d7-829f-3691681b8d32}, ! Handle
  Patterson Memorial Ann Clg 2% Condns WB=>MDB, ! Name
  30.8,                                   ! Maximum Dry-Bulb Temperature {C}
  8.9,                                    ! Daily Dry-Bulb Temperature Range {deltaC}
  26.1,                                   ! Humidity Indicating Conditions at Maximum Dry-Bulb {BasedOnField A3}
  101289,                                 ! Barometric Pressure {Pa}
  3.4,                                    ! Wind Speed {m/s}
  350,                                    ! Wind Direction {deg}
  0,                                      ! Sky Clearness
  0,                                      ! Rain Indicator
  0,                                      ! Snow Indicator
  21,                                     ! Day of Month
  8,                                      ! Month
  SummerDesignDay,                        ! Day Type
  0,                                      ! Daylight Saving Time Indicator
  Wetbulb,                                ! Humidity Indicating Type
  ,                                       ! Humidity Indicating Day Schedule Name
  DefaultMultipliers,                     ! Dry-Bulb Temperature Range Modifier Type
  ,                                       ! Dry-Bulb Temperature Range Modifier Schedule Name
  ASHRAETau,                              ! Solar Model Indicator
  ,                                       ! Beam Solar Day Schedule Name
  ,                                       ! Diffuse Solar Day Schedule Name
  0.54,                                   ! ASHRAE Taub {dimensionless}
  1.85;                                   ! ASHRAE Taud {dimensionless}

OS:ComponentData,
  {f109b496-50d5-4b6b-b517-26016ebc93f8}, ! Handle
  Component Data 1,                       ! Name
  {5defd7a7-10c8-4296-b0fb-5be6a957d135}, ! UUID
  {92615755-3e34-498d-b10a-38e077fde9db}, ! Version UUID
  1366307759,                             ! Creation Timestamp
  1366307759,                             ! Version Timestamp
  {350112dc-b561-49d7-829f-3691681b8d32}; ! Name of Object 1

