
OS:Version,
  {97910cad-5d87-4d44-9b4c-23eac2d2caa2}, ! Handle
  0.9.3;                                  ! Version Identifier

OS:SizingPeriod:DesignDay,
  {52163ea1-fa83-42c6-8e93-e5fad0e33f4a}, ! Handle
  NOME Ann Clg 2% Condns Enth=>MDB,       ! Name
  15.8,                                   ! Maximum Dry-Bulb Temperature {C}
  5.9,                                    ! Daily Dry-Bulb Temperature Range {deltaC}
  36000,                                  ! Humidity Indicating Conditions at Maximum Dry-Bulb {BasedOnField A3}
  101241,                                 ! Barometric Pressure {Pa}
  4.8,                                    ! Wind Speed {m/s}
  260,                                    ! Wind Direction {deg}
  0,                                      ! Sky Clearness
  0,                                      ! Rain Indicator
  0,                                      ! Snow Indicator
  21,                                     ! Day of Month
  7,                                      ! Month
  SummerDesignDay,                        ! Day Type
  0,                                      ! Daylight Saving Time Indicator
  Enthalpy,                               ! Humidity Indicating Type
  ,                                       ! Humidity Indicating Day Schedule Name
  DefaultMultipliers,                     ! Dry-Bulb Temperature Range Modifier Type
  ,                                       ! Dry-Bulb Temperature Range Modifier Schedule Name
  ASHRAETau,                              ! Solar Model Indicator
  ,                                       ! Beam Solar Day Schedule Name
  ,                                       ! Diffuse Solar Day Schedule Name
  0.408,                                  ! ASHRAE Taub {dimensionless}
  2.08;                                   ! ASHRAE Taud {dimensionless}

OS:ComponentData,
  {33a757b9-51fa-4373-a036-b701d850205f}, ! Handle
  Component Data 1,                       ! Name
  {f8481c8f-44be-4d57-966c-35b185f0f6c8}, ! UUID
  {72400fdb-aee3-448c-ba8f-f4394709f846}, ! Version UUID
  1366305448,                             ! Creation Timestamp
  1366305448,                             ! Version Timestamp
  {52163ea1-fa83-42c6-8e93-e5fad0e33f4a}; ! Name of Object 1

