
OS:Version,
  {10587ed6-e571-4b7b-b979-904d66e39822}, ! Handle
  0.9.3;                                  ! Version Identifier

OS:SizingPeriod:DesignDay,
  {5d120059-9031-4a00-aeaa-f88dd31af0c6}, ! Handle
  Newton  Awos Ann Htg 99% Condns DB,     ! Name
  -12.7,                                  ! Maximum Dry-Bulb Temperature {C}
  0,                                      ! Daily Dry-Bulb Temperature Range {deltaC}
  -12.7,                                  ! Humidity Indicating Conditions at Maximum Dry-Bulb {BasedOnField A3}
  95839,                                  ! Barometric Pressure {Pa}
  4.9,                                    ! Wind Speed {m/s}
  0,                                      ! Wind Direction {deg}
  0,                                      ! Sky Clearness
  0,                                      ! Rain Indicator
  0,                                      ! Snow Indicator
  21,                                     ! Day of Month
  1,                                      ! Month
  WinterDesignDay,                        ! Day Type
  0,                                      ! Daylight Saving Time Indicator
  Wetbulb,                                ! Humidity Indicating Type
  ,                                       ! Humidity Indicating Day Schedule Name
  DefaultMultipliers,                     ! Dry-Bulb Temperature Range Modifier Type
  ,                                       ! Dry-Bulb Temperature Range Modifier Schedule Name
  ASHRAEClearSky;                         ! Solar Model Indicator

OS:ComponentData,
  {a9db5f35-c627-4615-b06d-3ca8b1f10424}, ! Handle
  Component Data 1,                       ! Name
  {b8acaf22-93f4-4478-bd3e-bca26b635a78}, ! UUID
  {2ddbf509-3c6e-4858-9c52-a4370e9c45c9}, ! Version UUID
  1366307562,                             ! Creation Timestamp
  1366307562,                             ! Version Timestamp
  {5d120059-9031-4a00-aeaa-f88dd31af0c6}; ! Name of Object 1

