
OS:Version,
  {2fe0fe3e-b30b-4984-a90e-2f96ba84c949}, ! Handle
  0.9.3;                                  ! Version Identifier

OS:SizingPeriod:DesignDay,
  {88b83e71-699d-42a9-b79a-76d05450c01c}, ! Handle
  Rochester Greater Rochester I Ann Clg .4% Condns WB=>MDB, ! Name
  29.2,                                   ! Maximum Dry-Bulb Temperature {C}
  10.7,                                   ! Daily Dry-Bulb Temperature Range {deltaC}
  24.2,                                   ! Humidity Indicating Conditions at Maximum Dry-Bulb {BasedOnField A3}
  99146,                                  ! Barometric Pressure {Pa}
  5.2,                                    ! Wind Speed {m/s}
  240,                                    ! Wind Direction {deg}
  0,                                      ! Sky Clearness
  0,                                      ! Rain Indicator
  0,                                      ! Snow Indicator
  21,                                     ! Day of Month
  7,                                      ! Month
  SummerDesignDay,                        ! Day Type
  0,                                      ! Daylight Saving Time Indicator
  Wetbulb,                                ! Humidity Indicating Type
  ,                                       ! Humidity Indicating Day Schedule Name
  DefaultMultipliers,                     ! Dry-Bulb Temperature Range Modifier Type
  ,                                       ! Dry-Bulb Temperature Range Modifier Schedule Name
  ASHRAETau,                              ! Solar Model Indicator
  ,                                       ! Beam Solar Day Schedule Name
  ,                                       ! Diffuse Solar Day Schedule Name
  0.463,                                  ! ASHRAE Taub {dimensionless}
  2.001;                                  ! ASHRAE Taud {dimensionless}

OS:ComponentData,
  {bdcba081-0aec-4820-96aa-5d7a086e1708}, ! Handle
  Component Data 1,                       ! Name
  {fe996f54-bc71-4076-8123-289825edcf32}, ! UUID
  {5ba0a058-eb2c-4d48-ba5f-aa0fe7303b6a}, ! Version UUID
  1366309718,                             ! Creation Timestamp
  1366309718,                             ! Version Timestamp
  {88b83e71-699d-42a9-b79a-76d05450c01c}; ! Name of Object 1

