
OS:Version,
  {4b7aa5ec-8864-4bbc-b25a-3d5181d9be46}, ! Handle
  0.9.3;                                  ! Version Identifier

OS:SizingPeriod:DesignDay,
  {e2072c22-57ca-4831-a286-d96526d53940}, ! Handle
  SAN_FRANCISCO Ann Clg .4% Condns DP=>MDB, ! Name
  19.9,                                   ! Maximum Dry-Bulb Temperature {C}
  8.5,                                    ! Daily Dry-Bulb Temperature Range {deltaC}
  16.1,                                   ! Humidity Indicating Conditions at Maximum Dry-Bulb {BasedOnField A3}
  101265,                                 ! Barometric Pressure {Pa}
  5.9,                                    ! Wind Speed {m/s}
  310,                                    ! Wind Direction {deg}
  0,                                      ! Sky Clearness
  0,                                      ! Rain Indicator
  0,                                      ! Snow Indicator
  21,                                     ! Day of Month
  8,                                      ! Month
  SummerDesignDay,                        ! Day Type
  0,                                      ! Daylight Saving Time Indicator
  Dewpoint,                               ! Humidity Indicating Type
  ,                                       ! Humidity Indicating Day Schedule Name
  DefaultMultipliers,                     ! Dry-Bulb Temperature Range Modifier Type
  ,                                       ! Dry-Bulb Temperature Range Modifier Schedule Name
  ASHRAETau,                              ! Solar Model Indicator
  ,                                       ! Beam Solar Day Schedule Name
  ,                                       ! Diffuse Solar Day Schedule Name
  0.365,                                  ! ASHRAE Taub {dimensionless}
  2.435;                                  ! ASHRAE Taud {dimensionless}

OS:ComponentData,
  {e7e8adb1-4f72-4d7a-a14b-83f676051111}, ! Handle
  Component Data 1,                       ! Name
  {190302e0-53ad-417a-8c54-b8a0c660b5bd}, ! UUID
  {5afd9763-849d-47f0-8d2c-5aa152654eb7}, ! Version UUID
  1366306591,                             ! Creation Timestamp
  1366306591,                             ! Version Timestamp
  {e2072c22-57ca-4831-a286-d96526d53940}; ! Name of Object 1

