
OS:Version,
  {4799d421-a343-4d66-8e34-a3e3a9aad326}, ! Handle
  0.9.3;                                  ! Version Identifier

OS:SizingPeriod:DesignDay,
  {8f40f35a-43c6-45ae-ba47-5b9cd447af37}, ! Handle
  South Bend Michiana Rgnl Ap Ann Htg 99.6% Condns DB, ! Name
  -18.6,                                  ! Maximum Dry-Bulb Temperature {C}
  0,                                      ! Daily Dry-Bulb Temperature Range {deltaC}
  -18.6,                                  ! Humidity Indicating Conditions at Maximum Dry-Bulb {BasedOnField A3}
  98522,                                  ! Barometric Pressure {Pa}
  5.1,                                    ! Wind Speed {m/s}
  230,                                    ! Wind Direction {deg}
  0,                                      ! Sky Clearness
  0,                                      ! Rain Indicator
  0,                                      ! Snow Indicator
  21,                                     ! Day of Month
  1,                                      ! Month
  WinterDesignDay,                        ! Day Type
  0,                                      ! Daylight Saving Time Indicator
  Wetbulb,                                ! Humidity Indicating Type
  ,                                       ! Humidity Indicating Day Schedule Name
  DefaultMultipliers,                     ! Dry-Bulb Temperature Range Modifier Type
  ,                                       ! Dry-Bulb Temperature Range Modifier Schedule Name
  ASHRAEClearSky;                         ! Solar Model Indicator

OS:ComponentData,
  {e274b490-e16c-4dd7-bddb-e81f53c45a07}, ! Handle
  Component Data 1,                       ! Name
  {29619fe5-5268-4295-85ed-a40d336c3b6f}, ! UUID
  {d22ae330-7fe0-44d1-bb50-7b92b0942b3b}, ! Version UUID
  1366307482,                             ! Creation Timestamp
  1366307482,                             ! Version Timestamp
  {8f40f35a-43c6-45ae-ba47-5b9cd447af37}; ! Name of Object 1

