
OS:Version,
  {de102e4e-dc57-4b46-835d-532a11377270}, ! Handle
  0.9.3;                                  ! Version Identifier

OS:SizingPeriod:DesignDay,
  {207891ff-5790-456f-b7d3-b45f27a55783}, ! Handle
  South Bend Michiana Rgnl Ap Ann Htg 99.6% Condns DB, ! Name
  -18.6,                                  ! Maximum Dry-Bulb Temperature {C}
  0,                                      ! Daily Dry-Bulb Temperature Range {deltaC}
  -18.6,                                  ! Humidity Indicating Conditions at Maximum Dry-Bulb {BasedOnField A3}
  98522,                                  ! Barometric Pressure {Pa}
  5.1,                                    ! Wind Speed {m/s}
  230,                                    ! Wind Direction {deg}
  0,                                      ! Sky Clearness
  0,                                      ! Rain Indicator
  0,                                      ! Snow Indicator
  21,                                     ! Day of Month
  1,                                      ! Month
  WinterDesignDay,                        ! Day Type
  0,                                      ! Daylight Saving Time Indicator
  Wetbulb,                                ! Humidity Indicating Type
  ,                                       ! Humidity Indicating Day Schedule Name
  DefaultMultipliers,                     ! Dry-Bulb Temperature Range Modifier Type
  ,                                       ! Dry-Bulb Temperature Range Modifier Schedule Name
  ASHRAEClearSky;                         ! Solar Model Indicator

