
OS:Version,
  {34133f20-d49b-4f2c-a6f2-5d224146d73b}, ! Handle
  0.9.3;                                  ! Version Identifier

OS:SizingPeriod:DesignDay,
  {fa53c86a-6299-4934-a34c-8bd8887c788d}, ! Handle
  Sioux City Sioux Gateway Ap Ann Hum_n 99.6% Condns DP=>MCDB, ! Name
  -22.3,                                  ! Maximum Dry-Bulb Temperature {C}
  0,                                      ! Daily Dry-Bulb Temperature Range {deltaC}
  -27.1,                                  ! Humidity Indicating Conditions at Maximum Dry-Bulb {BasedOnField A3}
  97388,                                  ! Barometric Pressure {Pa}
  5.2,                                    ! Wind Speed {m/s}
  320,                                    ! Wind Direction {deg}
  0,                                      ! Sky Clearness
  0,                                      ! Rain Indicator
  0,                                      ! Snow Indicator
  21,                                     ! Day of Month
  1,                                      ! Month
  WinterDesignDay,                        ! Day Type
  0,                                      ! Daylight Saving Time Indicator
  Dewpoint,                               ! Humidity Indicating Type
  ,                                       ! Humidity Indicating Day Schedule Name
  DefaultMultipliers,                     ! Dry-Bulb Temperature Range Modifier Type
  ,                                       ! Dry-Bulb Temperature Range Modifier Schedule Name
  ASHRAEClearSky;                         ! Solar Model Indicator

OS:ComponentData,
  {260122f6-0bcf-4a3d-9443-acec453b9b63}, ! Handle
  Component Data 1,                       ! Name
  {c908fc03-0960-46d4-8ca4-96b1486b4aa4}, ! UUID
  {8738353c-1b3a-4d3b-aaba-bd0d29f99b56}, ! Version UUID
  1366307235,                             ! Creation Timestamp
  1366307235,                             ! Version Timestamp
  {fa53c86a-6299-4934-a34c-8bd8887c788d}; ! Name of Object 1

