
OS:Version,
  {8e725c7e-25c5-4d3d-889a-0966be00ea4d}, ! Handle
  0.9.3;                                  ! Version Identifier

OS:SizingPeriod:DesignDay,
  {41a5b136-2472-48be-9a0b-dc7dd5d425aa}, ! Handle
  Mason City Municipal Arpt Ann Clg 2% Condns Enth=>MDB, ! Name
  28.1,                                   ! Maximum Dry-Bulb Temperature {C}
  11.5,                                   ! Daily Dry-Bulb Temperature Range {deltaC}
  71800,                                  ! Humidity Indicating Conditions at Maximum Dry-Bulb {BasedOnField A3}
  97028,                                  ! Barometric Pressure {Pa}
  6.4,                                    ! Wind Speed {m/s}
  200,                                    ! Wind Direction {deg}
  0,                                      ! Sky Clearness
  0,                                      ! Rain Indicator
  0,                                      ! Snow Indicator
  21,                                     ! Day of Month
  7,                                      ! Month
  SummerDesignDay,                        ! Day Type
  0,                                      ! Daylight Saving Time Indicator
  Enthalpy,                               ! Humidity Indicating Type
  ,                                       ! Humidity Indicating Day Schedule Name
  DefaultMultipliers,                     ! Dry-Bulb Temperature Range Modifier Type
  ,                                       ! Dry-Bulb Temperature Range Modifier Schedule Name
  ASHRAETau,                              ! Solar Model Indicator
  ,                                       ! Beam Solar Day Schedule Name
  ,                                       ! Diffuse Solar Day Schedule Name
  0.409,                                  ! ASHRAE Taub {dimensionless}
  2.21;                                   ! ASHRAE Taud {dimensionless}

