
OS:Version,
  {91d9670a-9257-4f60-bc0e-74ff97e01da5}, ! Handle
  0.9.3;                                  ! Version Identifier

OS:SizingPeriod:DesignDay,
  {70bcd567-4d58-44dd-ab37-f28992e47d7b}, ! Handle
  Moline/Davenport IA Ann Clg 1% Condns DP=>MDB, ! Name
  28.4,                                   ! Maximum Dry-Bulb Temperature {C}
  11.1,                                   ! Daily Dry-Bulb Temperature Range {deltaC}
  23.6,                                   ! Humidity Indicating Conditions at Maximum Dry-Bulb {BasedOnField A3}
  99169,                                  ! Barometric Pressure {Pa}
  4.9,                                    ! Wind Speed {m/s}
  210,                                    ! Wind Direction {deg}
  0,                                      ! Sky Clearness
  0,                                      ! Rain Indicator
  0,                                      ! Snow Indicator
  21,                                     ! Day of Month
  7,                                      ! Month
  SummerDesignDay,                        ! Day Type
  0,                                      ! Daylight Saving Time Indicator
  Dewpoint,                               ! Humidity Indicating Type
  ,                                       ! Humidity Indicating Day Schedule Name
  DefaultMultipliers,                     ! Dry-Bulb Temperature Range Modifier Type
  ,                                       ! Dry-Bulb Temperature Range Modifier Schedule Name
  ASHRAETau,                              ! Solar Model Indicator
  ,                                       ! Beam Solar Day Schedule Name
  ,                                       ! Diffuse Solar Day Schedule Name
  0.449,                                  ! ASHRAE Taub {dimensionless}
  2.068;                                  ! ASHRAE Taud {dimensionless}

OS:ComponentData,
  {58a2ea62-3249-49e4-a5a6-ece51acd6fce}, ! Handle
  Component Data 1,                       ! Name
  {35eac66d-d43e-4d6b-9e44-c7cdb972f8b7}, ! UUID
  {95827f69-8f34-4b41-81fd-6e701bac961e}, ! Version UUID
  1366307364,                             ! Creation Timestamp
  1366307364,                             ! Version Timestamp
  {70bcd567-4d58-44dd-ab37-f28992e47d7b}; ! Name of Object 1

