
OS:Version,
  {6b0ba77d-e832-4f0f-8a00-a751b2996add}, ! Handle
  0.9.3;                                  ! Version Identifier

OS:SizingPeriod:DesignDay,
  {9ed37ea8-a65f-4749-8a91-63cd323ca0b9}, ! Handle
  PHOENIX Ann Hum_n 99.6% Condns DP=>MCDB, ! Name
  15.4,                                   ! Maximum Dry-Bulb Temperature {C}
  0,                                      ! Daily Dry-Bulb Temperature Range {deltaC}
  -14.5,                                  ! Humidity Indicating Conditions at Maximum Dry-Bulb {BasedOnField A3}
  97318,                                  ! Barometric Pressure {Pa}
  1.7,                                    ! Wind Speed {m/s}
  100,                                    ! Wind Direction {deg}
  0,                                      ! Sky Clearness
  0,                                      ! Rain Indicator
  0,                                      ! Snow Indicator
  21,                                     ! Day of Month
  12,                                     ! Month
  WinterDesignDay,                        ! Day Type
  0,                                      ! Daylight Saving Time Indicator
  Dewpoint,                               ! Humidity Indicating Type
  ,                                       ! Humidity Indicating Day Schedule Name
  DefaultMultipliers,                     ! Dry-Bulb Temperature Range Modifier Type
  ,                                       ! Dry-Bulb Temperature Range Modifier Schedule Name
  ASHRAEClearSky;                         ! Solar Model Indicator

