
OS:Version,
  {0699f41e-8eb6-4b26-8874-074dcb96c8f9}, ! Handle
  0.9.3;                                  ! Version Identifier

OS:SizingPeriod:DesignDay,
  {e1b3c7bc-7aa9-4b37-9418-b28602f40d54}, ! Handle
  Tallahassee Ann Clg 2% Condns Enth=>MDB, ! Name
  30.7,                                   ! Maximum Dry-Bulb Temperature {C}
  10.6,                                   ! Daily Dry-Bulb Temperature Range {deltaC}
  78700,                                  ! Humidity Indicating Conditions at Maximum Dry-Bulb {BasedOnField A3}
  101073,                                 ! Barometric Pressure {Pa}
  3.4,                                    ! Wind Speed {m/s}
  10,                                     ! Wind Direction {deg}
  0,                                      ! Sky Clearness
  0,                                      ! Rain Indicator
  0,                                      ! Snow Indicator
  21,                                     ! Day of Month
  7,                                      ! Month
  SummerDesignDay,                        ! Day Type
  0,                                      ! Daylight Saving Time Indicator
  Enthalpy,                               ! Humidity Indicating Type
  ,                                       ! Humidity Indicating Day Schedule Name
  DefaultMultipliers,                     ! Dry-Bulb Temperature Range Modifier Type
  ,                                       ! Dry-Bulb Temperature Range Modifier Schedule Name
  ASHRAETau,                              ! Solar Model Indicator
  ,                                       ! Beam Solar Day Schedule Name
  ,                                       ! Diffuse Solar Day Schedule Name
  0.537,                                  ! ASHRAE Taub {dimensionless}
  1.879;                                  ! ASHRAE Taud {dimensionless}

