
OS:Version,
  {8e37f100-549f-48f0-88d4-3bdb5d897fff}, ! Handle
  0.9.3;                                  ! Version Identifier

OS:SizingPeriod:DesignDay,
  {a5275b0c-5737-40c1-a1ac-a6aa4a6e37e9}, ! Handle
  Minneapolis Crystal Ann Hum_n 99% Condns DP=>MCDB, ! Name
  -19.9,                                  ! Maximum Dry-Bulb Temperature {C}
  0,                                      ! Daily Dry-Bulb Temperature Range {deltaC}
  -24.8,                                  ! Humidity Indicating Conditions at Maximum Dry-Bulb {BasedOnField A3}
  98182,                                  ! Barometric Pressure {Pa}
  3.5,                                    ! Wind Speed {m/s}
  310,                                    ! Wind Direction {deg}
  0,                                      ! Sky Clearness
  0,                                      ! Rain Indicator
  0,                                      ! Snow Indicator
  21,                                     ! Day of Month
  1,                                      ! Month
  WinterDesignDay,                        ! Day Type
  0,                                      ! Daylight Saving Time Indicator
  Dewpoint,                               ! Humidity Indicating Type
  ,                                       ! Humidity Indicating Day Schedule Name
  DefaultMultipliers,                     ! Dry-Bulb Temperature Range Modifier Type
  ,                                       ! Dry-Bulb Temperature Range Modifier Schedule Name
  ASHRAEClearSky;                         ! Solar Model Indicator

OS:ComponentData,
  {f4ed0a22-da52-4724-a8a0-4da8b02e3b60}, ! Handle
  Component Data 1,                       ! Name
  {1829da8d-bbd8-4dc0-a50d-4fa4189865c1}, ! UUID
  {a5092d22-25cf-42b1-81c0-c54ca414b9d8}, ! Version UUID
  1366308305,                             ! Creation Timestamp
  1366308305,                             ! Version Timestamp
  {a5275b0c-5737-40c1-a1ac-a6aa4a6e37e9}; ! Name of Object 1

