
OS:Version,
  {29862775-ab97-4f72-933a-866a83e97a8a}, ! Handle
  0.9.3;                                  ! Version Identifier

OS:SizingPeriod:DesignDay,
  {ba806486-278a-465d-ad4d-a0eacbf7c998}, ! Handle
  Yuma Intl Arpt Ann Hum_n 99.6% Condns DP=>MCDB, ! Name
  12.3,                                   ! Maximum Dry-Bulb Temperature {C}
  0,                                      ! Daily Dry-Bulb Temperature Range {deltaC}
  -14.2,                                  ! Humidity Indicating Conditions at Maximum Dry-Bulb {BasedOnField A3}
  100570,                                 ! Barometric Pressure {Pa}
  2,                                      ! Wind Speed {m/s}
  30,                                     ! Wind Direction {deg}
  0,                                      ! Sky Clearness
  0,                                      ! Rain Indicator
  0,                                      ! Snow Indicator
  21,                                     ! Day of Month
  12,                                     ! Month
  WinterDesignDay,                        ! Day Type
  0,                                      ! Daylight Saving Time Indicator
  Dewpoint,                               ! Humidity Indicating Type
  ,                                       ! Humidity Indicating Day Schedule Name
  DefaultMultipliers,                     ! Dry-Bulb Temperature Range Modifier Type
  ,                                       ! Dry-Bulb Temperature Range Modifier Schedule Name
  ASHRAEClearSky;                         ! Solar Model Indicator

OS:ComponentData,
  {b22c17cd-0891-4a31-80bf-986fa85ea8c6}, ! Handle
  Component Data 1,                       ! Name
  {cf2c332e-2c92-4e81-a660-499d72989cde}, ! UUID
  {c8d657f9-e445-440a-9470-86b431d7f940}, ! Version UUID
  1366306337,                             ! Creation Timestamp
  1366306337,                             ! Version Timestamp
  {ba806486-278a-465d-ad4d-a0eacbf7c998}; ! Name of Object 1

