
OS:Version,
  {297901ef-226e-49d4-9512-bae15c2a6e76}, ! Handle
  0.9.3;                                  ! Version Identifier

OS:SizingPeriod:DesignDay,
  {77e586e0-fd66-4ea5-a8f9-baa3ecdac587}, ! Handle
  Springfield Ann Htg 99% Condns DB,      ! Name
  -15.2,                                  ! Maximum Dry-Bulb Temperature {C}
  0,                                      ! Daily Dry-Bulb Temperature Range {deltaC}
  -15.2,                                  ! Humidity Indicating Conditions at Maximum Dry-Bulb {BasedOnField A3}
  99099,                                  ! Barometric Pressure {Pa}
  4.5,                                    ! Wind Speed {m/s}
  270,                                    ! Wind Direction {deg}
  0,                                      ! Sky Clearness
  0,                                      ! Rain Indicator
  0,                                      ! Snow Indicator
  21,                                     ! Day of Month
  1,                                      ! Month
  WinterDesignDay,                        ! Day Type
  0,                                      ! Daylight Saving Time Indicator
  Wetbulb,                                ! Humidity Indicating Type
  ,                                       ! Humidity Indicating Day Schedule Name
  DefaultMultipliers,                     ! Dry-Bulb Temperature Range Modifier Type
  ,                                       ! Dry-Bulb Temperature Range Modifier Schedule Name
  ASHRAEClearSky;                         ! Solar Model Indicator

OS:ComponentData,
  {6b712fc8-8b35-444d-aa41-0277939365d9}, ! Handle
  Component Data 1,                       ! Name
  {e98b2651-90ff-47e1-949d-1743b9dbb009}, ! UUID
  {ae5949ad-cb02-4e69-a7c0-5a190abc54d4}, ! Version UUID
  1366307400,                             ! Creation Timestamp
  1366307400,                             ! Version Timestamp
  {77e586e0-fd66-4ea5-a8f9-baa3ecdac587}; ! Name of Object 1

