
OS:Version,
  {81d93643-4bab-4355-b9a4-898fa75da8e5}, ! Handle
  0.9.3;                                  ! Version Identifier

OS:SizingPeriod:DesignDay,
  {6e4a75a4-8b6a-4b01-ad38-2e0c4363d984}, ! Handle
  Wittman Rgnl Ann Clg 2% Condns WB=>MDB, ! Name
  26.7,                                   ! Maximum Dry-Bulb Temperature {C}
  10.5,                                   ! Daily Dry-Bulb Temperature Range {deltaC}
  22.6,                                   ! Humidity Indicating Conditions at Maximum Dry-Bulb {BasedOnField A3}
  98322,                                  ! Barometric Pressure {Pa}
  4.8,                                    ! Wind Speed {m/s}
  210,                                    ! Wind Direction {deg}
  0,                                      ! Sky Clearness
  0,                                      ! Rain Indicator
  0,                                      ! Snow Indicator
  21,                                     ! Day of Month
  7,                                      ! Month
  SummerDesignDay,                        ! Day Type
  0,                                      ! Daylight Saving Time Indicator
  Wetbulb,                                ! Humidity Indicating Type
  ,                                       ! Humidity Indicating Day Schedule Name
  DefaultMultipliers,                     ! Dry-Bulb Temperature Range Modifier Type
  ,                                       ! Dry-Bulb Temperature Range Modifier Schedule Name
  ASHRAETau,                              ! Solar Model Indicator
  ,                                       ! Beam Solar Day Schedule Name
  ,                                       ! Diffuse Solar Day Schedule Name
  0.433,                                  ! ASHRAE Taub {dimensionless}
  2.113;                                  ! ASHRAE Taud {dimensionless}

OS:ComponentData,
  {35c601da-8622-44c1-8ca0-f722c44a27ad}, ! Handle
  Component Data 1,                       ! Name
  {4715dd9c-3abb-4a1e-8b06-267f7881787d}, ! UUID
  {5c72ba8a-fed4-4c8e-b11d-86bd061d3ccf}, ! Version UUID
  1366311604,                             ! Creation Timestamp
  1366311604,                             ! Version Timestamp
  {6e4a75a4-8b6a-4b01-ad38-2e0c4363d984}; ! Name of Object 1

