
OS:Version,
  {c3d57ecf-8dae-48f4-bc59-587fa2c4de8e}, ! Handle
  0.9.3;                                  ! Version Identifier

OS:SizingPeriod:DesignDay,
  {6192e3be-db3d-4023-8212-c938c406ffb0}, ! Handle
  Oceana Nas Ann Htg 99.6% Condns DB,     ! Name
  -6,                                     ! Maximum Dry-Bulb Temperature {C}
  0,                                      ! Daily Dry-Bulb Temperature Range {deltaC}
  -6,                                     ! Humidity Indicating Conditions at Maximum Dry-Bulb {BasedOnField A3}
  101229,                                 ! Barometric Pressure {Pa}
  4,                                      ! Wind Speed {m/s}
  0,                                      ! Wind Direction {deg}
  0,                                      ! Sky Clearness
  0,                                      ! Rain Indicator
  0,                                      ! Snow Indicator
  21,                                     ! Day of Month
  1,                                      ! Month
  WinterDesignDay,                        ! Day Type
  0,                                      ! Daylight Saving Time Indicator
  Wetbulb,                                ! Humidity Indicating Type
  ,                                       ! Humidity Indicating Day Schedule Name
  DefaultMultipliers,                     ! Dry-Bulb Temperature Range Modifier Type
  ,                                       ! Dry-Bulb Temperature Range Modifier Schedule Name
  ASHRAEClearSky;                         ! Solar Model Indicator

OS:ComponentData,
  {0e07ddcf-8bc2-4a16-8a92-5a0b0a69a4f9}, ! Handle
  Component Data 1,                       ! Name
  {9d6530d6-fd59-4815-b464-f4991ae07a51}, ! UUID
  {f1ddcb5a-6459-4f92-b8b0-d9cb531a7f03}, ! Version UUID
  1366311144,                             ! Creation Timestamp
  1366311144,                             ! Version Timestamp
  {6192e3be-db3d-4023-8212-c938c406ffb0}; ! Name of Object 1

