
OS:Version,
  {6e448d66-f169-4e22-bdcb-91b0dc1c8e10}, ! Handle
  0.9.3;                                  ! Version Identifier

OS:SizingPeriod:DesignDay,
  {c377e8be-7442-49ca-926a-4f9fe808fd31}, ! Handle
  MEDFORD Ann Clg 2% Condns DB=>MWB,      ! Name
  33.3,                                   ! Maximum Dry-Bulb Temperature {C}
  17.9,                                   ! Daily Dry-Bulb Temperature Range {deltaC}
  18.2,                                   ! Humidity Indicating Conditions at Maximum Dry-Bulb {BasedOnField A3}
  96657,                                  ! Barometric Pressure {Pa}
  3.9,                                    ! Wind Speed {m/s}
  290,                                    ! Wind Direction {deg}
  0,                                      ! Sky Clearness
  0,                                      ! Rain Indicator
  0,                                      ! Snow Indicator
  21,                                     ! Day of Month
  7,                                      ! Month
  SummerDesignDay,                        ! Day Type
  0,                                      ! Daylight Saving Time Indicator
  Wetbulb,                                ! Humidity Indicating Type
  ,                                       ! Humidity Indicating Day Schedule Name
  DefaultMultipliers,                     ! Dry-Bulb Temperature Range Modifier Type
  ,                                       ! Dry-Bulb Temperature Range Modifier Schedule Name
  ASHRAETau,                              ! Solar Model Indicator
  ,                                       ! Beam Solar Day Schedule Name
  ,                                       ! Diffuse Solar Day Schedule Name
  0.356,                                  ! ASHRAE Taub {dimensionless}
  2.582;                                  ! ASHRAE Taud {dimensionless}

OS:ComponentData,
  {80cb9e88-3a7c-49d3-818f-29ac6b71d8d6}, ! Handle
  Component Data 1,                       ! Name
  {74f520a1-7e80-4cbf-ba8e-c49d0d055ea0}, ! UUID
  {c032c80d-f99c-47a8-b752-984b87056d7c}, ! Version UUID
  1366310040,                             ! Creation Timestamp
  1366310040,                             ! Version Timestamp
  {c377e8be-7442-49ca-926a-4f9fe808fd31}; ! Name of Object 1

