
OS:Version,
  {f9c73542-30e1-4c28-9829-7ec18692f236}, ! Handle
  0.9.3;                                  ! Version Identifier

OS:SizingPeriod:DesignDay,
  {47b87aae-276d-4546-bdf8-068d5ab6c665}, ! Handle
  Orlando Ann Htg Wind 99% Condns WS=>MCDB, ! Name
  17.7,                                   ! Maximum Dry-Bulb Temperature {C}
  0,                                      ! Daily Dry-Bulb Temperature Range {deltaC}
  17.7,                                   ! Humidity Indicating Conditions at Maximum Dry-Bulb {BasedOnField A3}
  100941,                                 ! Barometric Pressure {Pa}
  8.2,                                    ! Wind Speed {m/s}
  310,                                    ! Wind Direction {deg}
  0,                                      ! Sky Clearness
  0,                                      ! Rain Indicator
  0,                                      ! Snow Indicator
  21,                                     ! Day of Month
  12,                                     ! Month
  WinterDesignDay,                        ! Day Type
  0,                                      ! Daylight Saving Time Indicator
  Wetbulb,                                ! Humidity Indicating Type
  ,                                       ! Humidity Indicating Day Schedule Name
  DefaultMultipliers,                     ! Dry-Bulb Temperature Range Modifier Type
  ,                                       ! Dry-Bulb Temperature Range Modifier Schedule Name
  ASHRAEClearSky;                         ! Solar Model Indicator

OS:ComponentData,
  {bb2119fe-d190-428c-8017-cf99c4a4b713}, ! Handle
  Component Data 1,                       ! Name
  {b6c0c62f-779c-434e-a97b-af09623f3543}, ! UUID
  {2bed5d00-f5d4-4cd9-bed8-6089cc78fb0c}, ! Version UUID
  1366306888,                             ! Creation Timestamp
  1366306888,                             ! Version Timestamp
  {47b87aae-276d-4546-bdf8-068d5ab6c665}; ! Name of Object 1

