
OS:Version,
  {96d7fe5f-844b-43db-b4fa-97c3541aa714}, ! Handle
  0.9.3;                                  ! Version Identifier

OS:SizingPeriod:DesignDay,
  {020884cd-4079-44a6-98a0-418c066dd28d}, ! Handle
  Tacoma Mcchord Afb Ann Clg .4% Condns DB=>MWB, ! Name
  30.1,                                   ! Maximum Dry-Bulb Temperature {C}
  12.8,                                   ! Daily Dry-Bulb Temperature Range {deltaC}
  18.2,                                   ! Humidity Indicating Conditions at Maximum Dry-Bulb {BasedOnField A3}
  100272,                                 ! Barometric Pressure {Pa}
  3.3,                                    ! Wind Speed {m/s}
  20,                                     ! Wind Direction {deg}
  0,                                      ! Sky Clearness
  0,                                      ! Rain Indicator
  0,                                      ! Snow Indicator
  21,                                     ! Day of Month
  8,                                      ! Month
  SummerDesignDay,                        ! Day Type
  0,                                      ! Daylight Saving Time Indicator
  Wetbulb,                                ! Humidity Indicating Type
  ,                                       ! Humidity Indicating Day Schedule Name
  DefaultMultipliers,                     ! Dry-Bulb Temperature Range Modifier Type
  ,                                       ! Dry-Bulb Temperature Range Modifier Schedule Name
  ASHRAETau,                              ! Solar Model Indicator
  ,                                       ! Beam Solar Day Schedule Name
  ,                                       ! Diffuse Solar Day Schedule Name
  0.353,                                  ! ASHRAE Taub {dimensionless}
  2.565;                                  ! ASHRAE Taud {dimensionless}

OS:ComponentData,
  {af8192cd-ae13-4cd6-b7c2-9088d5e943fe}, ! Handle
  Component Data 1,                       ! Name
  {3bcc0e50-a057-416d-b850-46a20b5e8477}, ! UUID
  {482d9f7f-277b-4d2c-9d28-e94b0237e97e}, ! Version UUID
  1366311406,                             ! Creation Timestamp
  1366311406,                             ! Version Timestamp
  {020884cd-4079-44a6-98a0-418c066dd28d}; ! Name of Object 1

