
OS:Version,
  {375c4618-36d1-4d7a-a002-a1694c4e2867}, ! Handle
  0.9.3;                                  ! Version Identifier

OS:SizingPeriod:DesignDay,
  {57a58c79-041d-42be-a9f8-e558584dc7e6}, ! Handle
  Omaha Eppley Airfield Ann Clg .4% Condns WB=>MDB, ! Name
  32,                                     ! Maximum Dry-Bulb Temperature {C}
  11,                                     ! Daily Dry-Bulb Temperature Range {deltaC}
  26.1,                                   ! Humidity Indicating Conditions at Maximum Dry-Bulb {BasedOnField A3}
  97784,                                  ! Barometric Pressure {Pa}
  6.1,                                    ! Wind Speed {m/s}
  180,                                    ! Wind Direction {deg}
  0,                                      ! Sky Clearness
  0,                                      ! Rain Indicator
  0,                                      ! Snow Indicator
  21,                                     ! Day of Month
  7,                                      ! Month
  SummerDesignDay,                        ! Day Type
  0,                                      ! Daylight Saving Time Indicator
  Wetbulb,                                ! Humidity Indicating Type
  ,                                       ! Humidity Indicating Day Schedule Name
  DefaultMultipliers,                     ! Dry-Bulb Temperature Range Modifier Type
  ,                                       ! Dry-Bulb Temperature Range Modifier Schedule Name
  ASHRAETau,                              ! Solar Model Indicator
  ,                                       ! Beam Solar Day Schedule Name
  ,                                       ! Diffuse Solar Day Schedule Name
  0.421,                                  ! ASHRAE Taub {dimensionless}
  2.196;                                  ! ASHRAE Taud {dimensionless}

OS:ComponentData,
  {30811372-6493-44be-b802-6eee3081a520}, ! Handle
  Component Data 1,                       ! Name
  {954d283c-0039-4452-a5ab-dbdb5116228e}, ! UUID
  {b38cc986-db89-4260-b829-532feac3c9b4}, ! Version UUID
  1366309173,                             ! Creation Timestamp
  1366309173,                             ! Version Timestamp
  {57a58c79-041d-42be-a9f8-e558584dc7e6}; ! Name of Object 1

