
OS:Version,
  {44ff1cb4-8e17-4aa3-b17d-f8c5bfcb264e}, ! Handle
  0.9.3;                                  ! Version Identifier

OS:SizingPeriod:DesignDay,
  {c4edc78d-affc-443a-94f7-875904786a13}, ! Handle
  Shreveport Downtown Ann Htg 99% Condns DB, ! Name
  -1.2,                                   ! Maximum Dry-Bulb Temperature {C}
  0,                                      ! Daily Dry-Bulb Temperature Range {deltaC}
  -1.2,                                   ! Humidity Indicating Conditions at Maximum Dry-Bulb {BasedOnField A3}
  100666,                                 ! Barometric Pressure {Pa}
  1.8,                                    ! Wind Speed {m/s}
  40,                                     ! Wind Direction {deg}
  0,                                      ! Sky Clearness
  0,                                      ! Rain Indicator
  0,                                      ! Snow Indicator
  21,                                     ! Day of Month
  12,                                     ! Month
  WinterDesignDay,                        ! Day Type
  0,                                      ! Daylight Saving Time Indicator
  Wetbulb,                                ! Humidity Indicating Type
  ,                                       ! Humidity Indicating Day Schedule Name
  DefaultMultipliers,                     ! Dry-Bulb Temperature Range Modifier Type
  ,                                       ! Dry-Bulb Temperature Range Modifier Schedule Name
  ASHRAEClearSky;                         ! Solar Model Indicator

OS:ComponentData,
  {b9f27409-f0ea-4fe3-a31e-001dc7da0c65}, ! Handle
  Component Data 1,                       ! Name
  {8f54bdd1-700a-4ca3-85f8-1ae0622f3f82}, ! UUID
  {b46bb707-8abe-4edd-9202-41e03db51e22}, ! Version UUID
  1366307765,                             ! Creation Timestamp
  1366307765,                             ! Version Timestamp
  {c4edc78d-affc-443a-94f7-875904786a13}; ! Name of Object 1

