
OS:Version,
  {697a4372-34ad-4754-86fb-5ae12b0faec5}, ! Handle
  0.9.3;                                  ! Version Identifier

OS:SizingPeriod:DesignDay,
  {1d148fd5-ad40-48e6-8c44-6a0866fbb325}, ! Handle
  Petersburg Ann Clg .4% Condns DP=>MDB,  ! Name
  15.4,                                   ! Maximum Dry-Bulb Temperature {C}
  6.1,                                    ! Daily Dry-Bulb Temperature Range {deltaC}
  13,                                     ! Humidity Indicating Conditions at Maximum Dry-Bulb {BasedOnField A3}
  100929,                                 ! Barometric Pressure {Pa}
  2.7,                                    ! Wind Speed {m/s}
  70,                                     ! Wind Direction {deg}
  0,                                      ! Sky Clearness
  0,                                      ! Rain Indicator
  0,                                      ! Snow Indicator
  21,                                     ! Day of Month
  7,                                      ! Month
  SummerDesignDay,                        ! Day Type
  0,                                      ! Daylight Saving Time Indicator
  Dewpoint,                               ! Humidity Indicating Type
  ,                                       ! Humidity Indicating Day Schedule Name
  DefaultMultipliers,                     ! Dry-Bulb Temperature Range Modifier Type
  ,                                       ! Dry-Bulb Temperature Range Modifier Schedule Name
  ASHRAETau,                              ! Solar Model Indicator
  ,                                       ! Beam Solar Day Schedule Name
  ,                                       ! Diffuse Solar Day Schedule Name
  0.393,                                  ! ASHRAE Taub {dimensionless}
  2.173;                                  ! ASHRAE Taud {dimensionless}

OS:ComponentData,
  {b24e8812-fe12-4211-86d6-5288c6f7f140}, ! Handle
  Component Data 1,                       ! Name
  {6d470a15-8d09-4080-b516-da057507c546}, ! UUID
  {a008df3a-d157-4165-afe0-bfd8fdaef895}, ! Version UUID
  1366305484,                             ! Creation Timestamp
  1366305484,                             ! Version Timestamp
  {1d148fd5-ad40-48e6-8c44-6a0866fbb325}; ! Name of Object 1

