
OS:Version,
  {c04bd699-cac2-4f52-951e-4a8932f8f809}, ! Handle
  0.9.3;                                  ! Version Identifier

OS:SizingPeriod:DesignDay,
  {1bee7982-9447-4a9e-94f4-f62d9f37a907}, ! Handle
  Saint Mary S  Awos Ann Htg Wind 99% Condns WS=>MCDB, ! Name
  -7.3,                                   ! Maximum Dry-Bulb Temperature {C}
  0,                                      ! Daily Dry-Bulb Temperature Range {deltaC}
  -7.3,                                   ! Humidity Indicating Conditions at Maximum Dry-Bulb {BasedOnField A3}
  100189,                                 ! Barometric Pressure {Pa}
  15.4,                                   ! Wind Speed {m/s}
  30,                                     ! Wind Direction {deg}
  0,                                      ! Sky Clearness
  0,                                      ! Rain Indicator
  0,                                      ! Snow Indicator
  21,                                     ! Day of Month
  1,                                      ! Month
  WinterDesignDay,                        ! Day Type
  0,                                      ! Daylight Saving Time Indicator
  Wetbulb,                                ! Humidity Indicating Type
  ,                                       ! Humidity Indicating Day Schedule Name
  DefaultMultipliers,                     ! Dry-Bulb Temperature Range Modifier Type
  ,                                       ! Dry-Bulb Temperature Range Modifier Schedule Name
  ASHRAEClearSky;                         ! Solar Model Indicator

OS:ComponentData,
  {f7d9c0c8-e541-4248-9b75-d1bb1171244a}, ! Handle
  Component Data 1,                       ! Name
  {5e2876eb-cf2d-4e48-8f33-b9749588f496}, ! UUID
  {3ef46121-f23e-4c7d-a2e4-0b3bae6d5011}, ! Version UUID
  1366305512,                             ! Creation Timestamp
  1366305512,                             ! Version Timestamp
  {1bee7982-9447-4a9e-94f4-f62d9f37a907}; ! Name of Object 1

