
OS:Version,
  {7153de47-c09a-4b4b-aa08-ade73f704bfd}, ! Handle
  0.9.3;                                  ! Version Identifier

OS:SizingPeriod:DesignDay,
  {34692e41-462b-491c-8be5-e9a27ef11cf3}, ! Handle
  Mount Clemens Selfridge Fld Ann Clg 1% Condns DP=>MDB, ! Name
  26.8,                                   ! Maximum Dry-Bulb Temperature {C}
  11,                                     ! Daily Dry-Bulb Temperature Range {deltaC}
  22.4,                                   ! Humidity Indicating Conditions at Maximum Dry-Bulb {BasedOnField A3}
  99217,                                  ! Barometric Pressure {Pa}
  4.4,                                    ! Wind Speed {m/s}
  160,                                    ! Wind Direction {deg}
  0,                                      ! Sky Clearness
  0,                                      ! Rain Indicator
  0,                                      ! Snow Indicator
  21,                                     ! Day of Month
  7,                                      ! Month
  SummerDesignDay,                        ! Day Type
  0,                                      ! Daylight Saving Time Indicator
  Dewpoint,                               ! Humidity Indicating Type
  ,                                       ! Humidity Indicating Day Schedule Name
  DefaultMultipliers,                     ! Dry-Bulb Temperature Range Modifier Type
  ,                                       ! Dry-Bulb Temperature Range Modifier Schedule Name
  ASHRAETau,                              ! Solar Model Indicator
  ,                                       ! Beam Solar Day Schedule Name
  ,                                       ! Diffuse Solar Day Schedule Name
  0.482,                                  ! ASHRAE Taub {dimensionless}
  1.934;                                  ! ASHRAE Taud {dimensionless}

OS:ComponentData,
  {040af22f-79cd-4606-9579-c23cbf80f26e}, ! Handle
  Component Data 1,                       ! Name
  {42200c10-52e2-4424-b059-5b5c6bb224ee}, ! UUID
  {9eede8c3-aff5-4d90-ab90-cda728de501b}, ! Version UUID
  1366308069,                             ! Creation Timestamp
  1366308069,                             ! Version Timestamp
  {34692e41-462b-491c-8be5-e9a27ef11cf3}; ! Name of Object 1

