
OS:Version,
  {be8ca383-e9c4-4fab-926f-8a5f3d4a6def}, ! Handle
  0.9.3;                                  ! Version Identifier

OS:SizingPeriod:DesignDay,
  {f8395a2c-5d9c-4e3d-b7fa-ffb493380916}, ! Handle
  W  Chicago Du Page Ann Clg .4% Condns DP=>MDB, ! Name
  29.1,                                   ! Maximum Dry-Bulb Temperature {C}
  11,                                     ! Daily Dry-Bulb Temperature Range {deltaC}
  24.1,                                   ! Humidity Indicating Conditions at Maximum Dry-Bulb {BasedOnField A3}
  98581,                                  ! Barometric Pressure {Pa}
  5.1,                                    ! Wind Speed {m/s}
  240,                                    ! Wind Direction {deg}
  0,                                      ! Sky Clearness
  0,                                      ! Rain Indicator
  0,                                      ! Snow Indicator
  21,                                     ! Day of Month
  7,                                      ! Month
  SummerDesignDay,                        ! Day Type
  0,                                      ! Daylight Saving Time Indicator
  Dewpoint,                               ! Humidity Indicating Type
  ,                                       ! Humidity Indicating Day Schedule Name
  DefaultMultipliers,                     ! Dry-Bulb Temperature Range Modifier Type
  ,                                       ! Dry-Bulb Temperature Range Modifier Schedule Name
  ASHRAETau,                              ! Solar Model Indicator
  ,                                       ! Beam Solar Day Schedule Name
  ,                                       ! Diffuse Solar Day Schedule Name
  0.449,                                  ! ASHRAE Taub {dimensionless}
  2.068;                                  ! ASHRAE Taud {dimensionless}

OS:ComponentData,
  {218a8645-674d-48da-a229-f0edecc58372}, ! Handle
  Component Data 1,                       ! Name
  {80b6d09f-8582-4cba-acd2-bb2424bab7b2}, ! UUID
  {5a291dcf-36bc-4bab-b707-a185ae306ec8}, ! Version UUID
  1366307359,                             ! Creation Timestamp
  1366307359,                             ! Version Timestamp
  {f8395a2c-5d9c-4e3d-b7fa-ffb493380916}; ! Name of Object 1

