
OS:Version,
  {1448610b-7dc6-431f-ba99-cf7e0d33bda9}, ! Handle
  0.9.3;                                  ! Version Identifier

OS:SizingPeriod:DesignDay,
  {2d0c14d2-f459-44f9-89f5-ceadc9457954}, ! Handle
  SAN_FRANCISCO Ann Clg .4% Condns Enth=>MDB, ! Name
  25.8,                                   ! Maximum Dry-Bulb Temperature {C}
  8.5,                                    ! Daily Dry-Bulb Temperature Range {deltaC}
  52400,                                  ! Humidity Indicating Conditions at Maximum Dry-Bulb {BasedOnField A3}
  101265,                                 ! Barometric Pressure {Pa}
  5.9,                                    ! Wind Speed {m/s}
  310,                                    ! Wind Direction {deg}
  0,                                      ! Sky Clearness
  0,                                      ! Rain Indicator
  0,                                      ! Snow Indicator
  21,                                     ! Day of Month
  8,                                      ! Month
  SummerDesignDay,                        ! Day Type
  0,                                      ! Daylight Saving Time Indicator
  Enthalpy,                               ! Humidity Indicating Type
  ,                                       ! Humidity Indicating Day Schedule Name
  DefaultMultipliers,                     ! Dry-Bulb Temperature Range Modifier Type
  ,                                       ! Dry-Bulb Temperature Range Modifier Schedule Name
  ASHRAETau,                              ! Solar Model Indicator
  ,                                       ! Beam Solar Day Schedule Name
  ,                                       ! Diffuse Solar Day Schedule Name
  0.365,                                  ! ASHRAE Taub {dimensionless}
  2.435;                                  ! ASHRAE Taud {dimensionless}

OS:ComponentData,
  {a8a8b370-fd46-4088-aafe-c91227c78442}, ! Handle
  Component Data 1,                       ! Name
  {d8c39129-5c0e-4e52-80ee-802e0f1991b1}, ! UUID
  {fe53d683-e91e-4f2b-a869-443704f277b1}, ! Version UUID
  1366306591,                             ! Creation Timestamp
  1366306591,                             ! Version Timestamp
  {2d0c14d2-f459-44f9-89f5-ceadc9457954}; ! Name of Object 1

