
OS:Version,
  {e6869ba0-9035-4bbb-87ec-67d217aef5c2}, ! Handle
  0.9.3;                                  ! Version Identifier

OS:SizingPeriod:DesignDay,
  {4575ae53-ad8e-45b5-b5bd-e279ed6ce07e}, ! Handle
  Otis Angb Ann Clg .4% Condns DB=>MWB,   ! Name
  29.2,                                   ! Maximum Dry-Bulb Temperature {C}
  8.3,                                    ! Daily Dry-Bulb Temperature Range {deltaC}
  22.3,                                   ! Humidity Indicating Conditions at Maximum Dry-Bulb {BasedOnField A3}
  100845,                                 ! Barometric Pressure {Pa}
  4.8,                                    ! Wind Speed {m/s}
  230,                                    ! Wind Direction {deg}
  0,                                      ! Sky Clearness
  0,                                      ! Rain Indicator
  0,                                      ! Snow Indicator
  21,                                     ! Day of Month
  7,                                      ! Month
  SummerDesignDay,                        ! Day Type
  0,                                      ! Daylight Saving Time Indicator
  Wetbulb,                                ! Humidity Indicating Type
  ,                                       ! Humidity Indicating Day Schedule Name
  DefaultMultipliers,                     ! Dry-Bulb Temperature Range Modifier Type
  ,                                       ! Dry-Bulb Temperature Range Modifier Schedule Name
  ASHRAETau,                              ! Solar Model Indicator
  ,                                       ! Beam Solar Day Schedule Name
  ,                                       ! Diffuse Solar Day Schedule Name
  0.514,                                  ! ASHRAE Taub {dimensionless}
  1.868;                                  ! ASHRAE Taud {dimensionless}

OS:ComponentData,
  {c54e9e79-79be-4c6b-a050-e1e47072507d}, ! Handle
  Component Data 1,                       ! Name
  {6bca2321-f967-477b-b05e-032e3ecc139f}, ! UUID
  {71bde261-6775-4cb1-80ae-ad5306e7aeb1}, ! Version UUID
  1366307814,                             ! Creation Timestamp
  1366307814,                             ! Version Timestamp
  {4575ae53-ad8e-45b5-b5bd-e279ed6ce07e}; ! Name of Object 1

