
OS:Version,
  {c59d6d8f-339e-44af-b729-eeef09d293f9}, ! Handle
  0.9.3;                                  ! Version Identifier

OS:SizingPeriod:DesignDay,
  {3492291c-58f0-45e0-a6e4-4a42f85d4b99}, ! Handle
  Tampa/Int'l Airport Ann Clg .4% Condns Enth=>MDB, ! Name
  31.1,                                   ! Maximum Dry-Bulb Temperature {C}
  7.9,                                    ! Daily Dry-Bulb Temperature Range {deltaC}
  84500,                                  ! Humidity Indicating Conditions at Maximum Dry-Bulb {BasedOnField A3}
  101289,                                 ! Barometric Pressure {Pa}
  3.9,                                    ! Wind Speed {m/s}
  260,                                    ! Wind Direction {deg}
  0,                                      ! Sky Clearness
  0,                                      ! Rain Indicator
  0,                                      ! Snow Indicator
  21,                                     ! Day of Month
  8,                                      ! Month
  SummerDesignDay,                        ! Day Type
  0,                                      ! Daylight Saving Time Indicator
  Enthalpy,                               ! Humidity Indicating Type
  ,                                       ! Humidity Indicating Day Schedule Name
  DefaultMultipliers,                     ! Dry-Bulb Temperature Range Modifier Type
  ,                                       ! Dry-Bulb Temperature Range Modifier Schedule Name
  ASHRAETau,                              ! Solar Model Indicator
  ,                                       ! Beam Solar Day Schedule Name
  ,                                       ! Diffuse Solar Day Schedule Name
  0.493,                                  ! ASHRAE Taub {dimensionless}
  2.01;                                   ! ASHRAE Taud {dimensionless}

OS:ComponentData,
  {99a7f3cc-f2b4-4af9-bd67-abc7bc47124d}, ! Handle
  Component Data 1,                       ! Name
  {b81c7ca4-5a70-4217-8952-d09abf051180}, ! UUID
  {c991713c-4273-442f-a831-f21f1f5669ea}, ! Version UUID
  1366306934,                             ! Creation Timestamp
  1366306934,                             ! Version Timestamp
  {3492291c-58f0-45e0-a6e4-4a42f85d4b99}; ! Name of Object 1

