
OS:Version,
  {af2b61f1-564b-4e9f-a962-52f706036e04}, ! Handle
  0.9.3;                                  ! Version Identifier

OS:SizingPeriod:DesignDay,
  {d48075ec-3100-46d4-9012-6fba857f8f59}, ! Handle
  Oklahoma City/Will Rog Ann Htg 99.6% Condns DB, ! Name
  -11.4,                                  ! Maximum Dry-Bulb Temperature {C}
  0,                                      ! Daily Dry-Bulb Temperature Range {deltaC}
  -11.4,                                  ! Humidity Indicating Conditions at Maximum Dry-Bulb {BasedOnField A3}
  96646,                                  ! Barometric Pressure {Pa}
  6.1,                                    ! Wind Speed {m/s}
  0,                                      ! Wind Direction {deg}
  0,                                      ! Sky Clearness
  0,                                      ! Rain Indicator
  0,                                      ! Snow Indicator
  21,                                     ! Day of Month
  1,                                      ! Month
  WinterDesignDay,                        ! Day Type
  0,                                      ! Daylight Saving Time Indicator
  Wetbulb,                                ! Humidity Indicating Type
  ,                                       ! Humidity Indicating Day Schedule Name
  DefaultMultipliers,                     ! Dry-Bulb Temperature Range Modifier Type
  ,                                       ! Dry-Bulb Temperature Range Modifier Schedule Name
  ASHRAEClearSky;                         ! Solar Model Indicator

OS:ComponentData,
  {51252efe-be11-4a1a-b986-aec624f8b480}, ! Handle
  Component Data 1,                       ! Name
  {1c437c4e-1d86-4d74-9a4e-f15aed9ccab0}, ! UUID
  {06d366bd-dec5-499e-a276-fd4559aef20e}, ! Version UUID
  1366309921,                             ! Creation Timestamp
  1366309921,                             ! Version Timestamp
  {d48075ec-3100-46d4-9012-6fba857f8f59}; ! Name of Object 1

