
OS:Version,
  {fb8c781e-f09a-4527-98a9-cac5fac415de}, ! Handle
  0.9.3;                                  ! Version Identifier

OS:SizingPeriod:DesignDay,
  {8526289b-f247-4510-895c-3ec58bb6599e}, ! Handle
  Moline Quad City Intl Ap Ann Clg .4% Condns DP=>MDB, ! Name
  29.6,                                   ! Maximum Dry-Bulb Temperature {C}
  11.1,                                   ! Daily Dry-Bulb Temperature Range {deltaC}
  24.5,                                   ! Humidity Indicating Conditions at Maximum Dry-Bulb {BasedOnField A3}
  99181,                                  ! Barometric Pressure {Pa}
  4.9,                                    ! Wind Speed {m/s}
  210,                                    ! Wind Direction {deg}
  0,                                      ! Sky Clearness
  0,                                      ! Rain Indicator
  0,                                      ! Snow Indicator
  21,                                     ! Day of Month
  7,                                      ! Month
  SummerDesignDay,                        ! Day Type
  0,                                      ! Daylight Saving Time Indicator
  Dewpoint,                               ! Humidity Indicating Type
  ,                                       ! Humidity Indicating Day Schedule Name
  DefaultMultipliers,                     ! Dry-Bulb Temperature Range Modifier Type
  ,                                       ! Dry-Bulb Temperature Range Modifier Schedule Name
  ASHRAETau,                              ! Solar Model Indicator
  ,                                       ! Beam Solar Day Schedule Name
  ,                                       ! Diffuse Solar Day Schedule Name
  0.449,                                  ! ASHRAE Taub {dimensionless}
  2.068;                                  ! ASHRAE Taud {dimensionless}

OS:ComponentData,
  {5709b4a9-8de0-4757-8152-00dc811ce851}, ! Handle
  Component Data 1,                       ! Name
  {454999b5-1375-48b0-8c13-0b40c2e10f76}, ! UUID
  {53aff0e2-94ca-4109-b544-8519e0202aef}, ! Version UUID
  1366307369,                             ! Creation Timestamp
  1366307369,                             ! Version Timestamp
  {8526289b-f247-4510-895c-3ec58bb6599e}; ! Name of Object 1

