
OS:Version,
  {51d0f2ee-ce4f-423c-908b-8bee0f80a83e}, ! Handle
  0.9.3;                                  ! Version Identifier

OS:SizingPeriod:DesignDay,
  {000a944b-abd0-43e4-bb21-48627ad0220d}, ! Handle
  Olympia Airport Ann Clg 1% Condns DP=>MDB, ! Name
  21,                                     ! Maximum Dry-Bulb Temperature {C}
  14.6,                                   ! Daily Dry-Bulb Temperature Range {deltaC}
  15.5,                                   ! Humidity Indicating Conditions at Maximum Dry-Bulb {BasedOnField A3}
  100570,                                 ! Barometric Pressure {Pa}
  3.4,                                    ! Wind Speed {m/s}
  20,                                     ! Wind Direction {deg}
  0,                                      ! Sky Clearness
  0,                                      ! Rain Indicator
  0,                                      ! Snow Indicator
  21,                                     ! Day of Month
  8,                                      ! Month
  SummerDesignDay,                        ! Day Type
  0,                                      ! Daylight Saving Time Indicator
  Dewpoint,                               ! Humidity Indicating Type
  ,                                       ! Humidity Indicating Day Schedule Name
  DefaultMultipliers,                     ! Dry-Bulb Temperature Range Modifier Type
  ,                                       ! Dry-Bulb Temperature Range Modifier Schedule Name
  ASHRAETau,                              ! Solar Model Indicator
  ,                                       ! Beam Solar Day Schedule Name
  ,                                       ! Diffuse Solar Day Schedule Name
  0.359,                                  ! ASHRAE Taub {dimensionless}
  2.536;                                  ! ASHRAE Taud {dimensionless}

OS:ComponentData,
  {4079350a-455d-4de0-96a5-0e574dcac1ad}, ! Handle
  Component Data 1,                       ! Name
  {7991c3aa-f72d-4769-abe6-07b232e89c4d}, ! UUID
  {a809c7d5-0828-4e0d-9064-a145c2c2923a}, ! Version UUID
  1366311315,                             ! Creation Timestamp
  1366311315,                             ! Version Timestamp
  {000a944b-abd0-43e4-bb21-48627ad0220d}; ! Name of Object 1

