
OS:Version,
  {3642ab9a-7c5b-4506-9b19-14a8043e0466}, ! Handle
  0.9.3;                                  ! Version Identifier

OS:SizingPeriod:DesignDay,
  {6c55c25a-4995-42d8-a6b4-8de3c06896b1}, ! Handle
  Visalia Muni  Awos Ann Htg Wind 99% Condns WS=>MCDB, ! Name
  11,                                     ! Maximum Dry-Bulb Temperature {C}
  0,                                      ! Daily Dry-Bulb Temperature Range {deltaC}
  11,                                     ! Humidity Indicating Conditions at Maximum Dry-Bulb {BasedOnField A3}
  100260,                                 ! Barometric Pressure {Pa}
  5.7,                                    ! Wind Speed {m/s}
  110,                                    ! Wind Direction {deg}
  0,                                      ! Sky Clearness
  0,                                      ! Rain Indicator
  0,                                      ! Snow Indicator
  21,                                     ! Day of Month
  12,                                     ! Month
  WinterDesignDay,                        ! Day Type
  0,                                      ! Daylight Saving Time Indicator
  Wetbulb,                                ! Humidity Indicating Type
  ,                                       ! Humidity Indicating Day Schedule Name
  DefaultMultipliers,                     ! Dry-Bulb Temperature Range Modifier Type
  ,                                       ! Dry-Bulb Temperature Range Modifier Schedule Name
  ASHRAEClearSky;                         ! Solar Model Indicator

OS:ComponentData,
  {d978be86-0d97-4439-8c55-e900bc4af605}, ! Handle
  Component Data 1,                       ! Name
  {c761010e-f1f8-4052-ad61-902a05a615e4}, ! UUID
  {6430d2d4-f9c8-4da4-a53e-0ed6adbc1d89}, ! Version UUID
  1366306631,                             ! Creation Timestamp
  1366306631,                             ! Version Timestamp
  {6c55c25a-4995-42d8-a6b4-8de3c06896b1}; ! Name of Object 1

