
OS:Version,
  {370378e6-1f93-4e48-af5a-05b3f8486609}, ! Handle
  0.9.3;                                  ! Version Identifier

OS:SizingPeriod:DesignDay,
  {13e728b3-2dcd-4744-a310-debf91556511}, ! Handle
  SALEM Ann Clg .4% Condns DP=>MDB,       ! Name
  23.3,                                   ! Maximum Dry-Bulb Temperature {C}
  15.4,                                   ! Daily Dry-Bulb Temperature Range {deltaC}
  16.4,                                   ! Humidity Indicating Conditions at Maximum Dry-Bulb {BasedOnField A3}
  100594,                                 ! Barometric Pressure {Pa}
  4.3,                                    ! Wind Speed {m/s}
  0,                                      ! Wind Direction {deg}
  0,                                      ! Sky Clearness
  0,                                      ! Rain Indicator
  0,                                      ! Snow Indicator
  21,                                     ! Day of Month
  8,                                      ! Month
  SummerDesignDay,                        ! Day Type
  0,                                      ! Daylight Saving Time Indicator
  Dewpoint,                               ! Humidity Indicating Type
  ,                                       ! Humidity Indicating Day Schedule Name
  DefaultMultipliers,                     ! Dry-Bulb Temperature Range Modifier Type
  ,                                       ! Dry-Bulb Temperature Range Modifier Schedule Name
  ASHRAETau,                              ! Solar Model Indicator
  ,                                       ! Beam Solar Day Schedule Name
  ,                                       ! Diffuse Solar Day Schedule Name
  0.355,                                  ! ASHRAE Taub {dimensionless}
  2.578;                                  ! ASHRAE Taud {dimensionless}

OS:ComponentData,
  {b3b63321-62b4-4975-942a-c340c110bf0b}, ! Handle
  Component Data 1,                       ! Name
  {b2caba62-d580-4d41-b4b5-b8f64a658cab}, ! UUID
  {c8fb6042-473a-4d15-bb4a-d973254ba3cf}, ! Version UUID
  1366310118,                             ! Creation Timestamp
  1366310118,                             ! Version Timestamp
  {13e728b3-2dcd-4744-a310-debf91556511}; ! Name of Object 1

