
OS:Version,
  {571efc21-7779-43bd-8af4-4167b52a1786}, ! Handle
  0.9.3;                                  ! Version Identifier

OS:SizingPeriod:DesignDay,
  {99e708a1-fa4c-423c-acb3-c6bf754a28bd}, ! Handle
  Mercury Desert Rock Ap  Surfr Ann Clg 1% Condns Enth=>MDB, ! Name
  33,                                     ! Maximum Dry-Bulb Temperature {C}
  14.8,                                   ! Daily Dry-Bulb Temperature Range {deltaC}
  60800,                                  ! Humidity Indicating Conditions at Maximum Dry-Bulb {BasedOnField A3}
  90585,                                  ! Barometric Pressure {Pa}
  5.5,                                    ! Wind Speed {m/s}
  230,                                    ! Wind Direction {deg}
  0,                                      ! Sky Clearness
  0,                                      ! Rain Indicator
  0,                                      ! Snow Indicator
  21,                                     ! Day of Month
  7,                                      ! Month
  SummerDesignDay,                        ! Day Type
  0,                                      ! Daylight Saving Time Indicator
  Enthalpy,                               ! Humidity Indicating Type
  ,                                       ! Humidity Indicating Day Schedule Name
  DefaultMultipliers,                     ! Dry-Bulb Temperature Range Modifier Type
  ,                                       ! Dry-Bulb Temperature Range Modifier Schedule Name
  ASHRAETau,                              ! Solar Model Indicator
  ,                                       ! Beam Solar Day Schedule Name
  ,                                       ! Diffuse Solar Day Schedule Name
  0.507,                                  ! ASHRAE Taub {dimensionless}
  1.746;                                  ! ASHRAE Taud {dimensionless}

OS:ComponentData,
  {816b2652-413b-4ee7-8154-10fd67fb4f0a}, ! Handle
  Component Data 1,                       ! Name
  {4ea6b693-632a-41fc-8b6b-9c0101e72ae7}, ! UUID
  {d4e30967-8a09-4b71-9761-bf18a88974fe}, ! Version UUID
  1366309523,                             ! Creation Timestamp
  1366309523,                             ! Version Timestamp
  {99e708a1-fa4c-423c-acb3-c6bf754a28bd}; ! Name of Object 1

