
OS:Version,
  {a55ebd02-50ba-438b-935d-2cd1120792e9}, ! Handle
  0.9.3;                                  ! Version Identifier

OS:SizingPeriod:DesignDay,
  {ddd997a0-3211-4a37-b09f-3ed0baabff66}, ! Handle
  Mercury Desert Rock Ap  Surfr Ann Clg 1% Condns Enth=>MDB, ! Name
  33,                                     ! Maximum Dry-Bulb Temperature {C}
  14.8,                                   ! Daily Dry-Bulb Temperature Range {deltaC}
  60800,                                  ! Humidity Indicating Conditions at Maximum Dry-Bulb {BasedOnField A3}
  90585,                                  ! Barometric Pressure {Pa}
  5.5,                                    ! Wind Speed {m/s}
  230,                                    ! Wind Direction {deg}
  0,                                      ! Sky Clearness
  0,                                      ! Rain Indicator
  0,                                      ! Snow Indicator
  21,                                     ! Day of Month
  7,                                      ! Month
  SummerDesignDay,                        ! Day Type
  0,                                      ! Daylight Saving Time Indicator
  Enthalpy,                               ! Humidity Indicating Type
  ,                                       ! Humidity Indicating Day Schedule Name
  DefaultMultipliers,                     ! Dry-Bulb Temperature Range Modifier Type
  ,                                       ! Dry-Bulb Temperature Range Modifier Schedule Name
  ASHRAETau,                              ! Solar Model Indicator
  ,                                       ! Beam Solar Day Schedule Name
  ,                                       ! Diffuse Solar Day Schedule Name
  0.507,                                  ! ASHRAE Taub {dimensionless}
  1.746;                                  ! ASHRAE Taud {dimensionless}

