
OS:Version,
  {fceb8e9a-109e-4da0-b288-2014b1f960ba}, ! Handle
  0.9.3;                                  ! Version Identifier

OS:SizingPeriod:DesignDay,
  {a91dc15b-5e4c-40db-90e0-f210e03b86f7}, ! Handle
  Orr Ann Hum_n 99.6% Condns DP=>MCDB,    ! Name
  -31.4,                                  ! Maximum Dry-Bulb Temperature {C}
  0,                                      ! Daily Dry-Bulb Temperature Range {deltaC}
  -35.8,                                  ! Humidity Indicating Conditions at Maximum Dry-Bulb {BasedOnField A3}
  96646,                                  ! Barometric Pressure {Pa}
  1.6,                                    ! Wind Speed {m/s}
  310,                                    ! Wind Direction {deg}
  0,                                      ! Sky Clearness
  0,                                      ! Rain Indicator
  0,                                      ! Snow Indicator
  21,                                     ! Day of Month
  1,                                      ! Month
  WinterDesignDay,                        ! Day Type
  0,                                      ! Daylight Saving Time Indicator
  Dewpoint,                               ! Humidity Indicating Type
  ,                                       ! Humidity Indicating Day Schedule Name
  DefaultMultipliers,                     ! Dry-Bulb Temperature Range Modifier Type
  ,                                       ! Dry-Bulb Temperature Range Modifier Schedule Name
  ASHRAEClearSky;                         ! Solar Model Indicator

OS:ComponentData,
  {c4d8da4f-4902-4adf-a28a-a46df85697ad}, ! Handle
  Component Data 1,                       ! Name
  {449789f5-5000-4336-a002-c202dadfc1b0}, ! UUID
  {a9c5ed97-6f45-484a-b873-86ac13867233}, ! Version UUID
  1366308347,                             ! Creation Timestamp
  1366308347,                             ! Version Timestamp
  {a91dc15b-5e4c-40db-90e0-f210e03b86f7}; ! Name of Object 1

