
OS:Version,
  {7ae45b96-21ce-4e2c-bc3e-2d49db28a2f0}, ! Handle
  0.9.3;                                  ! Version Identifier

OS:SizingPeriod:DesignDay,
  {871fb544-e435-4f6f-9eb9-0e8e51aa53be}, ! Handle
  Norfolk International Ap Ann Htg 99.6% Condns DB, ! Name
  -5.7,                                   ! Maximum Dry-Bulb Temperature {C}
  0,                                      ! Daily Dry-Bulb Temperature Range {deltaC}
  -5.7,                                   ! Humidity Indicating Conditions at Maximum Dry-Bulb {BasedOnField A3}
  101241,                                 ! Barometric Pressure {Pa}
  4.8,                                    ! Wind Speed {m/s}
  0,                                      ! Wind Direction {deg}
  0,                                      ! Sky Clearness
  0,                                      ! Rain Indicator
  0,                                      ! Snow Indicator
  21,                                     ! Day of Month
  1,                                      ! Month
  WinterDesignDay,                        ! Day Type
  0,                                      ! Daylight Saving Time Indicator
  Wetbulb,                                ! Humidity Indicating Type
  ,                                       ! Humidity Indicating Day Schedule Name
  DefaultMultipliers,                     ! Dry-Bulb Temperature Range Modifier Type
  ,                                       ! Dry-Bulb Temperature Range Modifier Schedule Name
  ASHRAEClearSky;                         ! Solar Model Indicator

OS:ComponentData,
  {df988022-f812-40ca-ab72-0f189ff3caf6}, ! Handle
  Component Data 1,                       ! Name
  {cdc71076-3b64-492b-a651-4a8e3e977902}, ! UUID
  {1de69e86-95fd-4e57-b3b2-64ed4c0aaa8c}, ! Version UUID
  1366311133,                             ! Creation Timestamp
  1366311133,                             ! Version Timestamp
  {871fb544-e435-4f6f-9eb9-0e8e51aa53be}; ! Name of Object 1

