
OS:Version,
  {cf9039d5-a6c5-4691-9814-c1c0742a13e2}, ! Handle
  0.9.3;                                  ! Version Identifier

OS:SizingPeriod:DesignDay,
  {5e9a33fe-5f61-4997-840a-a4dc9277160f}, ! Handle
  Springfield Ann Htg 99.6% Condns DB,    ! Name
  -15.4,                                  ! Maximum Dry-Bulb Temperature {C}
  0,                                      ! Daily Dry-Bulb Temperature Range {deltaC}
  -15.4,                                  ! Humidity Indicating Conditions at Maximum Dry-Bulb {BasedOnField A3}
  96761,                                  ! Barometric Pressure {Pa}
  3.8,                                    ! Wind Speed {m/s}
  350,                                    ! Wind Direction {deg}
  0,                                      ! Sky Clearness
  0,                                      ! Rain Indicator
  0,                                      ! Snow Indicator
  21,                                     ! Day of Month
  1,                                      ! Month
  WinterDesignDay,                        ! Day Type
  0,                                      ! Daylight Saving Time Indicator
  Wetbulb,                                ! Humidity Indicating Type
  ,                                       ! Humidity Indicating Day Schedule Name
  DefaultMultipliers,                     ! Dry-Bulb Temperature Range Modifier Type
  ,                                       ! Dry-Bulb Temperature Range Modifier Schedule Name
  ASHRAEClearSky;                         ! Solar Model Indicator

OS:ComponentData,
  {b68aa371-cb22-4e82-b89c-36c1984e63ec}, ! Handle
  Component Data 1,                       ! Name
  {988da962-93f3-41dc-9630-d03a857f4500}, ! UUID
  {951211c1-3788-412c-9ea8-77f3d1271362}, ! Version UUID
  1366308564,                             ! Creation Timestamp
  1366308564,                             ! Version Timestamp
  {5e9a33fe-5f61-4997-840a-a4dc9277160f}; ! Name of Object 1

