
OS:Version,
  {407f7d0b-a34c-43ec-8520-bee2f3755bcf}, ! Handle
  0.9.3;                                  ! Version Identifier

OS:SizingPeriod:DesignDay,
  {0d481adf-d348-4a8f-ac29-f3b0b1dcdb85}, ! Handle
  Shreveport Regional Arpt Ann Clg 1% Condns WB=>MDB, ! Name
  32.2,                                   ! Maximum Dry-Bulb Temperature {C}
  10.7,                                   ! Daily Dry-Bulb Temperature Range {deltaC}
  25.9,                                   ! Humidity Indicating Conditions at Maximum Dry-Bulb {BasedOnField A3}
  100403,                                 ! Barometric Pressure {Pa}
  3.3,                                    ! Wind Speed {m/s}
  180,                                    ! Wind Direction {deg}
  0,                                      ! Sky Clearness
  0,                                      ! Rain Indicator
  0,                                      ! Snow Indicator
  21,                                     ! Day of Month
  7,                                      ! Month
  SummerDesignDay,                        ! Day Type
  0,                                      ! Daylight Saving Time Indicator
  Wetbulb,                                ! Humidity Indicating Type
  ,                                       ! Humidity Indicating Day Schedule Name
  DefaultMultipliers,                     ! Dry-Bulb Temperature Range Modifier Type
  ,                                       ! Dry-Bulb Temperature Range Modifier Schedule Name
  ASHRAETau,                              ! Solar Model Indicator
  ,                                       ! Beam Solar Day Schedule Name
  ,                                       ! Diffuse Solar Day Schedule Name
  0.489,                                  ! ASHRAE Taub {dimensionless}
  2.014;                                  ! ASHRAE Taud {dimensionless}

OS:ComponentData,
  {9e7005b0-eb30-42c0-bacd-65d379e5874f}, ! Handle
  Component Data 1,                       ! Name
  {10756c80-7613-40a7-b5ba-f25e785fe62e}, ! UUID
  {b9ede2bd-5c5d-4c48-889b-c198d055107f}, ! Version UUID
  1366307774,                             ! Creation Timestamp
  1366307774,                             ! Version Timestamp
  {0d481adf-d348-4a8f-ac29-f3b0b1dcdb85}; ! Name of Object 1

