
OS:Version,
  {8832e5d2-5a34-41c5-822d-8fd11fa72cc8}, ! Handle
  0.9.3;                                  ! Version Identifier

OS:SizingPeriod:DesignDay,
  {60c16eac-aab7-4616-bdab-5bedcda385bc}, ! Handle
  New Orleans/Lakefront Ann Clg 1% Condns WB=>MDB, ! Name
  31.1,                                   ! Maximum Dry-Bulb Temperature {C}
  8.5,                                    ! Daily Dry-Bulb Temperature Range {deltaC}
  26.7,                                   ! Humidity Indicating Conditions at Maximum Dry-Bulb {BasedOnField A3}
  101289,                                 ! Barometric Pressure {Pa}
  3.4,                                    ! Wind Speed {m/s}
  0,                                      ! Wind Direction {deg}
  0,                                      ! Sky Clearness
  0,                                      ! Rain Indicator
  0,                                      ! Snow Indicator
  21,                                     ! Day of Month
  8,                                      ! Month
  SummerDesignDay,                        ! Day Type
  0,                                      ! Daylight Saving Time Indicator
  Wetbulb,                                ! Humidity Indicating Type
  ,                                       ! Humidity Indicating Day Schedule Name
  DefaultMultipliers,                     ! Dry-Bulb Temperature Range Modifier Type
  ,                                       ! Dry-Bulb Temperature Range Modifier Schedule Name
  ASHRAETau,                              ! Solar Model Indicator
  ,                                       ! Beam Solar Day Schedule Name
  ,                                       ! Diffuse Solar Day Schedule Name
  0.553,                                  ! ASHRAE Taub {dimensionless}
  1.821;                                  ! ASHRAE Taud {dimensionless}

OS:ComponentData,
  {36ff2b89-3266-47bb-ae9f-b4034a4379cd}, ! Handle
  Component Data 1,                       ! Name
  {c8a089d6-0a7c-428a-b9e9-8764eb335177}, ! UUID
  {ae8bc91b-97e2-4a83-b97b-53b72eca28bf}, ! Version UUID
  1366307751,                             ! Creation Timestamp
  1366307751,                             ! Version Timestamp
  {60c16eac-aab7-4616-bdab-5bedcda385bc}; ! Name of Object 1

