
OS:Version,
  {ce2b4167-6fb5-428a-888f-6e23e570bcc7}, ! Handle
  0.9.3;                                  ! Version Identifier

OS:SizingPeriod:DesignDay,
  {093e386c-0979-48d5-b8ea-3fff00ef04a2}, ! Handle
  Myrtle Beach Afb Ann Clg 2% Condns Enth=>MDB, ! Name
  30.1,                                   ! Maximum Dry-Bulb Temperature {C}
  7.8,                                    ! Daily Dry-Bulb Temperature Range {deltaC}
  81100,                                  ! Humidity Indicating Conditions at Maximum Dry-Bulb {BasedOnField A3}
  101229,                                 ! Barometric Pressure {Pa}
  3.6,                                    ! Wind Speed {m/s}
  180,                                    ! Wind Direction {deg}
  0,                                      ! Sky Clearness
  0,                                      ! Rain Indicator
  0,                                      ! Snow Indicator
  21,                                     ! Day of Month
  7,                                      ! Month
  SummerDesignDay,                        ! Day Type
  0,                                      ! Daylight Saving Time Indicator
  Enthalpy,                               ! Humidity Indicating Type
  ,                                       ! Humidity Indicating Day Schedule Name
  DefaultMultipliers,                     ! Dry-Bulb Temperature Range Modifier Type
  ,                                       ! Dry-Bulb Temperature Range Modifier Schedule Name
  ASHRAETau,                              ! Solar Model Indicator
  ,                                       ! Beam Solar Day Schedule Name
  ,                                       ! Diffuse Solar Day Schedule Name
  0.573,                                  ! ASHRAE Taub {dimensionless}
  1.77;                                   ! ASHRAE Taud {dimensionless}

OS:ComponentData,
  {f306c105-f12e-4c25-a541-cec8325198dc}, ! Handle
  Component Data 1,                       ! Name
  {2916aac3-bb9f-41b5-bc2c-b27f843c2249}, ! UUID
  {364afd7f-b196-4a49-89a2-d7843cf4980a}, ! Version UUID
  1366310374,                             ! Creation Timestamp
  1366310374,                             ! Version Timestamp
  {093e386c-0979-48d5-b8ea-3fff00ef04a2}; ! Name of Object 1

