
OS:Version,
  {cead3f2e-421f-4b4d-b85c-ee8e8f1b2f78}, ! Handle
  0.9.3;                                  ! Version Identifier

OS:SizingPeriod:DesignDay,
  {437f498d-9c8f-44d0-aa8a-2e82a6bf1b4f}, ! Handle
  Oklahoma City Wiley Ann Clg 1% Condns Enth=>MDB, ! Name
  31.9,                                   ! Maximum Dry-Bulb Temperature {C}
  11.1,                                   ! Daily Dry-Bulb Temperature Range {deltaC}
  76800,                                  ! Humidity Indicating Conditions at Maximum Dry-Bulb {BasedOnField A3}
  96657,                                  ! Barometric Pressure {Pa}
  5.6,                                    ! Wind Speed {m/s}
  190,                                    ! Wind Direction {deg}
  0,                                      ! Sky Clearness
  0,                                      ! Rain Indicator
  0,                                      ! Snow Indicator
  21,                                     ! Day of Month
  7,                                      ! Month
  SummerDesignDay,                        ! Day Type
  0,                                      ! Daylight Saving Time Indicator
  Enthalpy,                               ! Humidity Indicating Type
  ,                                       ! Humidity Indicating Day Schedule Name
  DefaultMultipliers,                     ! Dry-Bulb Temperature Range Modifier Type
  ,                                       ! Dry-Bulb Temperature Range Modifier Schedule Name
  ASHRAETau,                              ! Solar Model Indicator
  ,                                       ! Beam Solar Day Schedule Name
  ,                                       ! Diffuse Solar Day Schedule Name
  0.425,                                  ! ASHRAE Taub {dimensionless}
  2.217;                                  ! ASHRAE Taud {dimensionless}

OS:ComponentData,
  {41c2a6bf-2ea8-4b59-af7c-8a6248ebe751}, ! Handle
  Component Data 1,                       ! Name
  {02fc117b-1b49-43c3-9d37-a9474a6df373}, ! UUID
  {fabeaa6a-ee3c-47d3-a0de-c8ee71452645}, ! Version UUID
  1366309919,                             ! Creation Timestamp
  1366309919,                             ! Version Timestamp
  {437f498d-9c8f-44d0-aa8a-2e82a6bf1b4f}; ! Name of Object 1

