
OS:Version,
  {6edd2141-baed-470a-9a9a-a568cacb2dad}, ! Handle
  0.9.3;                                  ! Version Identifier

OS:SizingPeriod:DesignDay,
  {b311e1cd-9994-4d88-bc3e-43252197b0d8}, ! Handle
  Pellston Emmet County Ap Ann Clg .4% Condns WB=>MDB, ! Name
  28.6,                                   ! Maximum Dry-Bulb Temperature {C}
  13.1,                                   ! Daily Dry-Bulb Temperature Range {deltaC}
  23.3,                                   ! Humidity Indicating Conditions at Maximum Dry-Bulb {BasedOnField A3}
  98733,                                  ! Barometric Pressure {Pa}
  5.6,                                    ! Wind Speed {m/s}
  250,                                    ! Wind Direction {deg}
  0,                                      ! Sky Clearness
  0,                                      ! Rain Indicator
  0,                                      ! Snow Indicator
  21,                                     ! Day of Month
  7,                                      ! Month
  SummerDesignDay,                        ! Day Type
  0,                                      ! Daylight Saving Time Indicator
  Wetbulb,                                ! Humidity Indicating Type
  ,                                       ! Humidity Indicating Day Schedule Name
  DefaultMultipliers,                     ! Dry-Bulb Temperature Range Modifier Type
  ,                                       ! Dry-Bulb Temperature Range Modifier Schedule Name
  ASHRAETau,                              ! Solar Model Indicator
  ,                                       ! Beam Solar Day Schedule Name
  ,                                       ! Diffuse Solar Day Schedule Name
  0.414,                                  ! ASHRAE Taub {dimensionless}
  2.197;                                  ! ASHRAE Taud {dimensionless}

OS:ComponentData,
  {aa510f4a-2e6a-4a93-b05e-0f7d87319581}, ! Handle
  Component Data 1,                       ! Name
  {b695ae08-6c90-4890-9865-26fa2601a382}, ! UUID
  {cfce5d11-d5ba-4d0e-ab53-4819bb3004ff}, ! Version UUID
  1366308088,                             ! Creation Timestamp
  1366308088,                             ! Version Timestamp
  {b311e1cd-9994-4d88-bc3e-43252197b0d8}; ! Name of Object 1

