
OS:Version,
  {f5599aac-6eb9-4e26-af8c-bc1f8dee41de}, ! Handle
  0.9.3;                                  ! Version Identifier

OS:SizingPeriod:DesignDay,
  {873b1985-8cfd-42d8-94ba-187689c4d787}, ! Handle
  Pocatello Ann Clg .4% Condns WB=>MDB,   ! Name
  30.3,                                   ! Maximum Dry-Bulb Temperature {C}
  18.7,                                   ! Daily Dry-Bulb Temperature Range {deltaC}
  18.5,                                   ! Humidity Indicating Conditions at Maximum Dry-Bulb {BasedOnField A3}
  85966,                                  ! Barometric Pressure {Pa}
  4.8,                                    ! Wind Speed {m/s}
  240,                                    ! Wind Direction {deg}
  0,                                      ! Sky Clearness
  0,                                      ! Rain Indicator
  0,                                      ! Snow Indicator
  21,                                     ! Day of Month
  7,                                      ! Month
  SummerDesignDay,                        ! Day Type
  0,                                      ! Daylight Saving Time Indicator
  Wetbulb,                                ! Humidity Indicating Type
  ,                                       ! Humidity Indicating Day Schedule Name
  DefaultMultipliers,                     ! Dry-Bulb Temperature Range Modifier Type
  ,                                       ! Dry-Bulb Temperature Range Modifier Schedule Name
  ASHRAETau,                              ! Solar Model Indicator
  ,                                       ! Beam Solar Day Schedule Name
  ,                                       ! Diffuse Solar Day Schedule Name
  0.416,                                  ! ASHRAE Taub {dimensionless}
  2.003;                                  ! ASHRAE Taud {dimensionless}

OS:ComponentData,
  {960c248c-667d-4370-953d-34fbd99f4b4c}, ! Handle
  Component Data 1,                       ! Name
  {b3a68887-dabc-4d74-97f4-f0c4589991d1}, ! UUID
  {7a78caa6-1472-4046-bd67-d08570be05f5}, ! Version UUID
  1366307303,                             ! Creation Timestamp
  1366307303,                             ! Version Timestamp
  {873b1985-8cfd-42d8-94ba-187689c4d787}; ! Name of Object 1

