
OS:Version,
  {b3609b0d-f281-4b36-8f97-5c326621f71f}, ! Handle
  0.9.3;                                  ! Version Identifier

OS:SizingPeriod:DesignDay,
  {3570f397-7c22-4fbf-a3f7-562e1c3dfbda}, ! Handle
  Terre Haute Hulman Regional A Ann Clg 1% Condns Enth=>MDB, ! Name
  30.6,                                   ! Maximum Dry-Bulb Temperature {C}
  10.9,                                   ! Daily Dry-Bulb Temperature Range {deltaC}
  79400,                                  ! Humidity Indicating Conditions at Maximum Dry-Bulb {BasedOnField A3}
  99240,                                  ! Barometric Pressure {Pa}
  4.4,                                    ! Wind Speed {m/s}
  200,                                    ! Wind Direction {deg}
  0,                                      ! Sky Clearness
  0,                                      ! Rain Indicator
  0,                                      ! Snow Indicator
  21,                                     ! Day of Month
  7,                                      ! Month
  SummerDesignDay,                        ! Day Type
  0,                                      ! Daylight Saving Time Indicator
  Enthalpy,                               ! Humidity Indicating Type
  ,                                       ! Humidity Indicating Day Schedule Name
  DefaultMultipliers,                     ! Dry-Bulb Temperature Range Modifier Type
  ,                                       ! Dry-Bulb Temperature Range Modifier Schedule Name
  ASHRAETau,                              ! Solar Model Indicator
  ,                                       ! Beam Solar Day Schedule Name
  ,                                       ! Diffuse Solar Day Schedule Name
  0.482,                                  ! ASHRAE Taub {dimensionless}
  1.952;                                  ! ASHRAE Taud {dimensionless}

OS:ComponentData,
  {2c11cd49-202c-457b-8e2b-23ee9e5dff1d}, ! Handle
  Component Data 1,                       ! Name
  {214bdb1f-757b-45d4-b31f-1b35c5c25dfc}, ! UUID
  {7f1de33a-a811-481e-8165-a2e6d716c573}, ! Version UUID
  1366307493,                             ! Creation Timestamp
  1366307493,                             ! Version Timestamp
  {3570f397-7c22-4fbf-a3f7-562e1c3dfbda}; ! Name of Object 1

