
OS:Version,
  {686990bd-3e6a-407d-9a22-5109c5a6e959}, ! Handle
  0.9.3;                                  ! Version Identifier

OS:SizingPeriod:DesignDay,
  {456cfd8f-96a6-4307-89d9-d532d426e33c}, ! Handle
  Meridian Key Field Ann Htg Wind 99.6% Condns WS=>MCDB, ! Name
  13.5,                                   ! Maximum Dry-Bulb Temperature {C}
  0,                                      ! Daily Dry-Bulb Temperature Range {deltaC}
  13.5,                                   ! Humidity Indicating Conditions at Maximum Dry-Bulb {BasedOnField A3}
  100248,                                 ! Barometric Pressure {Pa}
  9.4,                                    ! Wind Speed {m/s}
  0,                                      ! Wind Direction {deg}
  0,                                      ! Sky Clearness
  0,                                      ! Rain Indicator
  0,                                      ! Snow Indicator
  21,                                     ! Day of Month
  1,                                      ! Month
  WinterDesignDay,                        ! Day Type
  0,                                      ! Daylight Saving Time Indicator
  Wetbulb,                                ! Humidity Indicating Type
  ,                                       ! Humidity Indicating Day Schedule Name
  DefaultMultipliers,                     ! Dry-Bulb Temperature Range Modifier Type
  ,                                       ! Dry-Bulb Temperature Range Modifier Schedule Name
  ASHRAEClearSky;                         ! Solar Model Indicator

OS:ComponentData,
  {8d59cf57-3c5a-4ed4-8189-88aad7f79cbd}, ! Handle
  Component Data 1,                       ! Name
  {d23a07fb-cf2f-4a5f-a3f5-f08c1cfe1ea6}, ! UUID
  {a8a15a28-821d-487d-a41f-f8d72e773695}, ! Version UUID
  1366308666,                             ! Creation Timestamp
  1366308666,                             ! Version Timestamp
  {456cfd8f-96a6-4307-89d9-d532d426e33c}; ! Name of Object 1

