
OS:Version,
  {d30994ff-9687-4e34-85d7-5dedf7558fb7}, ! Handle
  0.9.3;                                  ! Version Identifier

OS:SizingPeriod:DesignDay,
  {3b643232-5396-4800-ad20-f067692d28e1}, ! Handle
  Memphis Ann Htg 99% Condns DB,          ! Name
  -5.7,                                   ! Maximum Dry-Bulb Temperature {C}
  0,                                      ! Daily Dry-Bulb Temperature Range {deltaC}
  -5.7,                                   ! Humidity Indicating Conditions at Maximum Dry-Bulb {BasedOnField A3}
  100284,                                 ! Barometric Pressure {Pa}
  4.1,                                    ! Wind Speed {m/s}
  0,                                      ! Wind Direction {deg}
  0,                                      ! Sky Clearness
  0,                                      ! Rain Indicator
  0,                                      ! Snow Indicator
  21,                                     ! Day of Month
  1,                                      ! Month
  WinterDesignDay,                        ! Day Type
  0,                                      ! Daylight Saving Time Indicator
  Wetbulb,                                ! Humidity Indicating Type
  ,                                       ! Humidity Indicating Day Schedule Name
  DefaultMultipliers,                     ! Dry-Bulb Temperature Range Modifier Type
  ,                                       ! Dry-Bulb Temperature Range Modifier Schedule Name
  ASHRAEClearSky;                         ! Solar Model Indicator

OS:ComponentData,
  {71d554a0-6d9f-4644-bfd2-068132c90c61}, ! Handle
  Component Data 1,                       ! Name
  {1b064c2e-e2f3-4414-b009-6267ecb633b2}, ! UUID
  {984e8788-4550-4ff1-a5ee-4dcababc3349}, ! Version UUID
  1366310524,                             ! Creation Timestamp
  1366310524,                             ! Version Timestamp
  {3b643232-5396-4800-ad20-f067692d28e1}; ! Name of Object 1

