
OS:Version,
  {afbd5e42-ee17-4c60-a749-17e784aa75ee}, ! Handle
  0.9.3;                                  ! Version Identifier

OS:SizingPeriod:DesignDay,
  {e721dd46-a154-435e-88ae-ec9278c13dc4}, ! Handle
  Pittsburgh Allegheny Co Ap Ann Htg Wind 99.6% Condns WS=>MCDB, ! Name
  -2.2,                                   ! Maximum Dry-Bulb Temperature {C}
  0,                                      ! Daily Dry-Bulb Temperature Range {deltaC}
  -2.2,                                   ! Humidity Indicating Conditions at Maximum Dry-Bulb {BasedOnField A3}
  96842,                                  ! Barometric Pressure {Pa}
  11.2,                                   ! Wind Speed {m/s}
  240,                                    ! Wind Direction {deg}
  0,                                      ! Sky Clearness
  0,                                      ! Rain Indicator
  0,                                      ! Snow Indicator
  21,                                     ! Day of Month
  1,                                      ! Month
  WinterDesignDay,                        ! Day Type
  0,                                      ! Daylight Saving Time Indicator
  Wetbulb,                                ! Humidity Indicating Type
  ,                                       ! Humidity Indicating Day Schedule Name
  DefaultMultipliers,                     ! Dry-Bulb Temperature Range Modifier Type
  ,                                       ! Dry-Bulb Temperature Range Modifier Schedule Name
  ASHRAEClearSky;                         ! Solar Model Indicator

OS:ComponentData,
  {6a877f12-f23f-4780-a6c6-ae962ef7ea75}, ! Handle
  Component Data 1,                       ! Name
  {eb2bcd7b-698f-4c98-a713-05b5bf5a8e09}, ! UUID
  {85ad7642-d4a0-438f-8e5d-ef9ccfa3db07}, ! Version UUID
  1366310226,                             ! Creation Timestamp
  1366310226,                             ! Version Timestamp
  {e721dd46-a154-435e-88ae-ec9278c13dc4}; ! Name of Object 1

