
OS:Version,
  {67486a37-dc89-49d4-8546-53b2121d908b}, ! Handle
  0.9.3;                                  ! Version Identifier

OS:SizingPeriod:DesignDay,
  {5b9f0a4e-c0e6-4106-890e-3d9833172c28}, ! Handle
  Watertown Municipal Ap Ann Clg 1% Condns Enth=>MDB, ! Name
  28.5,                                   ! Maximum Dry-Bulb Temperature {C}
  11.8,                                   ! Daily Dry-Bulb Temperature Range {deltaC}
  71800,                                  ! Humidity Indicating Conditions at Maximum Dry-Bulb {BasedOnField A3}
  95095,                                  ! Barometric Pressure {Pa}
  6.4,                                    ! Wind Speed {m/s}
  180,                                    ! Wind Direction {deg}
  0,                                      ! Sky Clearness
  0,                                      ! Rain Indicator
  0,                                      ! Snow Indicator
  21,                                     ! Day of Month
  7,                                      ! Month
  SummerDesignDay,                        ! Day Type
  0,                                      ! Daylight Saving Time Indicator
  Enthalpy,                               ! Humidity Indicating Type
  ,                                       ! Humidity Indicating Day Schedule Name
  DefaultMultipliers,                     ! Dry-Bulb Temperature Range Modifier Type
  ,                                       ! Dry-Bulb Temperature Range Modifier Schedule Name
  ASHRAETau,                              ! Solar Model Indicator
  ,                                       ! Beam Solar Day Schedule Name
  ,                                       ! Diffuse Solar Day Schedule Name
  0.389,                                  ! ASHRAE Taub {dimensionless}
  2.276;                                  ! ASHRAE Taud {dimensionless}

OS:ComponentData,
  {576e3a66-0026-4df1-8afe-46299ceebb24}, ! Handle
  Component Data 1,                       ! Name
  {4c103fc3-8ec5-442d-b5c3-61456e57e72e}, ! UUID
  {e414840d-d29f-4bc2-be33-130e8fa5b8d4}, ! Version UUID
  1366310469,                             ! Creation Timestamp
  1366310469,                             ! Version Timestamp
  {5b9f0a4e-c0e6-4106-890e-3d9833172c28}; ! Name of Object 1

