
OS:Version,
  {5f54582c-4956-453b-9d58-d6ad9ea9c463}, ! Handle
  0.9.3;                                  ! Version Identifier

OS:SizingPeriod:DesignDay,
  {257ae8c2-6761-4d9f-9b11-67627a1b3d18}, ! Handle
  Minneapolis Crystal Ann Clg 2% Condns DP=>MDB, ! Name
  26.2,                                   ! Maximum Dry-Bulb Temperature {C}
  10.7,                                   ! Daily Dry-Bulb Temperature Range {deltaC}
  21.2,                                   ! Humidity Indicating Conditions at Maximum Dry-Bulb {BasedOnField A3}
  98182,                                  ! Barometric Pressure {Pa}
  5.7,                                    ! Wind Speed {m/s}
  190,                                    ! Wind Direction {deg}
  0,                                      ! Sky Clearness
  0,                                      ! Rain Indicator
  0,                                      ! Snow Indicator
  21,                                     ! Day of Month
  7,                                      ! Month
  SummerDesignDay,                        ! Day Type
  0,                                      ! Daylight Saving Time Indicator
  Dewpoint,                               ! Humidity Indicating Type
  ,                                       ! Humidity Indicating Day Schedule Name
  DefaultMultipliers,                     ! Dry-Bulb Temperature Range Modifier Type
  ,                                       ! Dry-Bulb Temperature Range Modifier Schedule Name
  ASHRAETau,                              ! Solar Model Indicator
  ,                                       ! Beam Solar Day Schedule Name
  ,                                       ! Diffuse Solar Day Schedule Name
  0.415,                                  ! ASHRAE Taub {dimensionless}
  2.179;                                  ! ASHRAE Taud {dimensionless}

OS:ComponentData,
  {00c6a5ea-d448-4832-bbd5-d9e65608a984}, ! Handle
  Component Data 1,                       ! Name
  {d9a5e631-2607-4c61-9403-c98723f07580}, ! UUID
  {b12b7ec7-48fd-4c44-90b2-8c11d7b86735}, ! Version UUID
  1366308307,                             ! Creation Timestamp
  1366308307,                             ! Version Timestamp
  {257ae8c2-6761-4d9f-9b11-67627a1b3d18}; ! Name of Object 1

