
OS:Version,
  {af3d5d6a-c3e5-4f48-bf3f-c718a518426d}, ! Handle
  0.9.3;                                  ! Version Identifier

OS:SizingPeriod:DesignDay,
  {6491912b-f6df-41cb-8a92-91adf48e9947}, ! Handle
  Tacoma Narrows Ann Clg .4% Condns DB=>MWB, ! Name
  28.7,                                   ! Maximum Dry-Bulb Temperature {C}
  10.7,                                   ! Daily Dry-Bulb Temperature Range {deltaC}
  17.8,                                   ! Humidity Indicating Conditions at Maximum Dry-Bulb {BasedOnField A3}
  100237,                                 ! Barometric Pressure {Pa}
  3.5,                                    ! Wind Speed {m/s}
  10,                                     ! Wind Direction {deg}
  0,                                      ! Sky Clearness
  0,                                      ! Rain Indicator
  0,                                      ! Snow Indicator
  21,                                     ! Day of Month
  7,                                      ! Month
  SummerDesignDay,                        ! Day Type
  0,                                      ! Daylight Saving Time Indicator
  Wetbulb,                                ! Humidity Indicating Type
  ,                                       ! Humidity Indicating Day Schedule Name
  DefaultMultipliers,                     ! Dry-Bulb Temperature Range Modifier Type
  ,                                       ! Dry-Bulb Temperature Range Modifier Schedule Name
  ASHRAETau,                              ! Solar Model Indicator
  ,                                       ! Beam Solar Day Schedule Name
  ,                                       ! Diffuse Solar Day Schedule Name
  0.36,                                   ! ASHRAE Taub {dimensionless}
  2.5;                                    ! ASHRAE Taud {dimensionless}

OS:ComponentData,
  {1339a1dc-238a-4562-8efc-9a680138ea95}, ! Handle
  Component Data 1,                       ! Name
  {ab96893c-50f6-4c0e-a8e3-3f2559b55bdb}, ! UUID
  {a51dfed2-0c81-43f2-ba07-e5946fba317a}, ! Version UUID
  1366311411,                             ! Creation Timestamp
  1366311411,                             ! Version Timestamp
  {6491912b-f6df-41cb-8a92-91adf48e9947}; ! Name of Object 1

