
OS:Version,
  {3c2e6ecb-16b5-4fa2-a082-88d712c66aa5}, ! Handle
  0.9.3;                                  ! Version Identifier

OS:SizingPeriod:DesignDay,
  {41a6c0c4-bd36-4291-9196-2f5d16393c69}, ! Handle
  Mcconnell Afb Ann Htg Wind 99% Condns WS=>MCDB, ! Name
  3.9,                                    ! Maximum Dry-Bulb Temperature {C}
  0,                                      ! Daily Dry-Bulb Temperature Range {deltaC}
  3.9,                                    ! Humidity Indicating Conditions at Maximum Dry-Bulb {BasedOnField A3}
  96449,                                  ! Barometric Pressure {Pa}
  11.9,                                   ! Wind Speed {m/s}
  0,                                      ! Wind Direction {deg}
  0,                                      ! Sky Clearness
  0,                                      ! Rain Indicator
  0,                                      ! Snow Indicator
  21,                                     ! Day of Month
  1,                                      ! Month
  WinterDesignDay,                        ! Day Type
  0,                                      ! Daylight Saving Time Indicator
  Wetbulb,                                ! Humidity Indicating Type
  ,                                       ! Humidity Indicating Day Schedule Name
  DefaultMultipliers,                     ! Dry-Bulb Temperature Range Modifier Type
  ,                                       ! Dry-Bulb Temperature Range Modifier Schedule Name
  ASHRAEClearSky;                         ! Solar Model Indicator

OS:ComponentData,
  {a2a71b4e-4d92-40f3-bb9a-352b3ee6dc0e}, ! Handle
  Component Data 1,                       ! Name
  {5c8f8b28-9871-4759-959c-318036eacded}, ! UUID
  {1a97b0da-a82f-4907-aa7a-cdfc9086e257}, ! Version UUID
  1366307598,                             ! Creation Timestamp
  1366307598,                             ! Version Timestamp
  {41a6c0c4-bd36-4291-9196-2f5d16393c69}; ! Name of Object 1

