
OS:Version,
  {12ca8b9a-0b7c-4f5b-b46a-4caa275fb7de}, ! Handle
  0.9.3;                                  ! Version Identifier

OS:SizingPeriod:DesignDay,
  {df5c9c06-60a8-4491-a1eb-c3ad6d53c715}, ! Handle
  Utica Oneida County Ap Ann Htg Wind 99% Condns WS=>MCDB, ! Name
  -6.3,                                   ! Maximum Dry-Bulb Temperature {C}
  0,                                      ! Daily Dry-Bulb Temperature Range {deltaC}
  -6.3,                                   ! Humidity Indicating Conditions at Maximum Dry-Bulb {BasedOnField A3}
  98745,                                  ! Barometric Pressure {Pa}
  10.7,                                   ! Wind Speed {m/s}
  270,                                    ! Wind Direction {deg}
  0,                                      ! Sky Clearness
  0,                                      ! Rain Indicator
  0,                                      ! Snow Indicator
  21,                                     ! Day of Month
  1,                                      ! Month
  WinterDesignDay,                        ! Day Type
  0,                                      ! Daylight Saving Time Indicator
  Wetbulb,                                ! Humidity Indicating Type
  ,                                       ! Humidity Indicating Day Schedule Name
  DefaultMultipliers,                     ! Dry-Bulb Temperature Range Modifier Type
  ,                                       ! Dry-Bulb Temperature Range Modifier Schedule Name
  ASHRAEClearSky;                         ! Solar Model Indicator

OS:ComponentData,
  {dc08a4d8-42fa-4327-8086-8d4d6bd44482}, ! Handle
  Component Data 1,                       ! Name
  {5fc0937a-3b26-492d-908a-2cafdc34b592}, ! UUID
  {bc40307a-e7e0-4d2e-ba1c-e00eda38bab1}, ! Version UUID
  1366309743,                             ! Creation Timestamp
  1366309743,                             ! Version Timestamp
  {df5c9c06-60a8-4491-a1eb-c3ad6d53c715}; ! Name of Object 1

