
OS:Version,
  {d365888a-2ddf-41fc-a7c6-d05df8555984}, ! Handle
  0.9.3;                                  ! Version Identifier

OS:SizingPeriod:DesignDay,
  {cee94e32-442a-492f-984e-103a62b3a1e8}, ! Handle
  Ohio State Universi Ann Clg 2% Condns WB=>MDB, ! Name
  27.7,                                   ! Maximum Dry-Bulb Temperature {C}
  10.4,                                   ! Daily Dry-Bulb Temperature Range {deltaC}
  23.2,                                   ! Humidity Indicating Conditions at Maximum Dry-Bulb {BasedOnField A3}
  97971,                                  ! Barometric Pressure {Pa}
  4.5,                                    ! Wind Speed {m/s}
  240,                                    ! Wind Direction {deg}
  0,                                      ! Sky Clearness
  0,                                      ! Rain Indicator
  0,                                      ! Snow Indicator
  21,                                     ! Day of Month
  7,                                      ! Month
  SummerDesignDay,                        ! Day Type
  0,                                      ! Daylight Saving Time Indicator
  Wetbulb,                                ! Humidity Indicating Type
  ,                                       ! Humidity Indicating Day Schedule Name
  DefaultMultipliers,                     ! Dry-Bulb Temperature Range Modifier Type
  ,                                       ! Dry-Bulb Temperature Range Modifier Schedule Name
  ASHRAETau,                              ! Solar Model Indicator
  ,                                       ! Beam Solar Day Schedule Name
  ,                                       ! Diffuse Solar Day Schedule Name
  0.479,                                  ! ASHRAE Taub {dimensionless}
  1.957;                                  ! ASHRAE Taud {dimensionless}

OS:ComponentData,
  {6b8c1ac9-52e6-4b4b-8dbb-1c85f76dd572}, ! Handle
  Component Data 1,                       ! Name
  {f25a4190-3c5f-454e-b60d-9a7e7d911094}, ! UUID
  {22744367-9969-4093-a915-565c111bcbd7}, ! Version UUID
  1366309841,                             ! Creation Timestamp
  1366309841,                             ! Version Timestamp
  {cee94e32-442a-492f-984e-103a62b3a1e8}; ! Name of Object 1

