
OS:Version,
  {b8f02495-1b88-4f11-86aa-a3b9d6eaa41d}, ! Handle
  0.9.3;                                  ! Version Identifier

OS:SizingPeriod:DesignDay,
  {f06d5266-c4b7-4ac3-96f1-89634dd010ac}, ! Handle
  SAINT_CLOUD Ann Clg .4% Condns WB=>MDB, ! Name
  30.2,                                   ! Maximum Dry-Bulb Temperature {C}
  12.3,                                   ! Daily Dry-Bulb Temperature Range {deltaC}
  24.7,                                   ! Humidity Indicating Conditions at Maximum Dry-Bulb {BasedOnField A3}
  97621,                                  ! Barometric Pressure {Pa}
  5.1,                                    ! Wind Speed {m/s}
  180,                                    ! Wind Direction {deg}
  0,                                      ! Sky Clearness
  0,                                      ! Rain Indicator
  0,                                      ! Snow Indicator
  21,                                     ! Day of Month
  7,                                      ! Month
  SummerDesignDay,                        ! Day Type
  0,                                      ! Daylight Saving Time Indicator
  Wetbulb,                                ! Humidity Indicating Type
  ,                                       ! Humidity Indicating Day Schedule Name
  DefaultMultipliers,                     ! Dry-Bulb Temperature Range Modifier Type
  ,                                       ! Dry-Bulb Temperature Range Modifier Schedule Name
  ASHRAETau,                              ! Solar Model Indicator
  ,                                       ! Beam Solar Day Schedule Name
  ,                                       ! Diffuse Solar Day Schedule Name
  0.405,                                  ! ASHRAE Taub {dimensionless}
  2.216;                                  ! ASHRAE Taud {dimensionless}

OS:ComponentData,
  {5c22f3bb-ad0e-4980-b6a3-0272293c593b}, ! Handle
  Component Data 1,                       ! Name
  {2d02c7c6-f534-4771-95e4-cf8af9c13308}, ! UUID
  {6b697cdd-c903-437b-8c61-c3ac03c95503}, ! Version UUID
  1366308410,                             ! Creation Timestamp
  1366308410,                             ! Version Timestamp
  {f06d5266-c4b7-4ac3-96f1-89634dd010ac}; ! Name of Object 1

