
OS:Version,
  {ca88f39e-25a4-4b53-b05b-38a1c2b66586}, ! Handle
  0.9.3;                                  ! Version Identifier

OS:SizingPeriod:DesignDay,
  {09f956ad-7579-4711-99b9-32181312afee}, ! Handle
  Naples Municipal Ann Clg .4% Condns DB=>MWB, ! Name
  32.7,                                   ! Maximum Dry-Bulb Temperature {C}
  7.8,                                    ! Daily Dry-Bulb Temperature Range {deltaC}
  25.2,                                   ! Humidity Indicating Conditions at Maximum Dry-Bulb {BasedOnField A3}
  101289,                                 ! Barometric Pressure {Pa}
  4.2,                                    ! Wind Speed {m/s}
  50,                                     ! Wind Direction {deg}
  0,                                      ! Sky Clearness
  0,                                      ! Rain Indicator
  0,                                      ! Snow Indicator
  21,                                     ! Day of Month
  7,                                      ! Month
  SummerDesignDay,                        ! Day Type
  0,                                      ! Daylight Saving Time Indicator
  Wetbulb,                                ! Humidity Indicating Type
  ,                                       ! Humidity Indicating Day Schedule Name
  DefaultMultipliers,                     ! Dry-Bulb Temperature Range Modifier Type
  ,                                       ! Dry-Bulb Temperature Range Modifier Schedule Name
  ASHRAETau,                              ! Solar Model Indicator
  ,                                       ! Beam Solar Day Schedule Name
  ,                                       ! Diffuse Solar Day Schedule Name
  0.499,                                  ! ASHRAE Taub {dimensionless}
  1.998;                                  ! ASHRAE Taud {dimensionless}

OS:ComponentData,
  {0c650a59-8440-4cbf-8c26-72b563f47189}, ! Handle
  Component Data 1,                       ! Name
  {7b68cc71-3718-4164-a727-6ec850ee777c}, ! UUID
  {5d832580-27d7-4e21-a5da-2701a4d9b739}, ! Version UUID
  1366306869,                             ! Creation Timestamp
  1366306869,                             ! Version Timestamp
  {09f956ad-7579-4711-99b9-32181312afee}; ! Name of Object 1

