
OS:Version,
  {0907bb22-78dd-4656-9d74-15eefb0dbc0e}, ! Handle
  0.9.3;                                  ! Version Identifier

OS:SizingPeriod:DesignDay,
  {4359c50c-68d6-4cef-8f20-410d249a946a}, ! Handle
  St Paul Island Arpt Ann Htg Wind 99.6% Condns WS=>MCDB, ! Name
  -2.1,                                   ! Maximum Dry-Bulb Temperature {C}
  0,                                      ! Daily Dry-Bulb Temperature Range {deltaC}
  -2.1,                                   ! Humidity Indicating Conditions at Maximum Dry-Bulb {BasedOnField A3}
  101241,                                 ! Barometric Pressure {Pa}
  20.3,                                   ! Wind Speed {m/s}
  0,                                      ! Wind Direction {deg}
  0,                                      ! Sky Clearness
  0,                                      ! Rain Indicator
  0,                                      ! Snow Indicator
  21,                                     ! Day of Month
  2,                                      ! Month
  WinterDesignDay,                        ! Day Type
  0,                                      ! Daylight Saving Time Indicator
  Wetbulb,                                ! Humidity Indicating Type
  ,                                       ! Humidity Indicating Day Schedule Name
  DefaultMultipliers,                     ! Dry-Bulb Temperature Range Modifier Type
  ,                                       ! Dry-Bulb Temperature Range Modifier Schedule Name
  ASHRAEClearSky;                         ! Solar Model Indicator

OS:ComponentData,
  {0b4eb4ca-57aa-40dd-95ce-85a8343b670a}, ! Handle
  Component Data 1,                       ! Name
  {148a330f-7a35-41ac-a278-2aa1d93d58ef}, ! UUID
  {be1f2de7-faea-4b70-84aa-6ce1a638d4c4}, ! Version UUID
  1366305576,                             ! Creation Timestamp
  1366305576,                             ! Version Timestamp
  {4359c50c-68d6-4cef-8f20-410d249a946a}; ! Name of Object 1

