
OS:Version,
  {a2ded5f9-108a-4b18-8fa7-f12c6613d7c4}, ! Handle
  0.9.3;                                  ! Version Identifier

OS:SizingPeriod:DesignDay,
  {d674623b-c867-4535-8049-c3ff6bc9b0ed}, ! Handle
  Naval Air Station Ann Clg 2% Condns DB=>MWB, ! Name
  26.9,                                   ! Maximum Dry-Bulb Temperature {C}
  10.4,                                   ! Daily Dry-Bulb Temperature Range {deltaC}
  19.6,                                   ! Humidity Indicating Conditions at Maximum Dry-Bulb {BasedOnField A3}
  101073,                                 ! Barometric Pressure {Pa}
  4,                                      ! Wind Speed {m/s}
  200,                                    ! Wind Direction {deg}
  0,                                      ! Sky Clearness
  0,                                      ! Rain Indicator
  0,                                      ! Snow Indicator
  21,                                     ! Day of Month
  7,                                      ! Month
  SummerDesignDay,                        ! Day Type
  0,                                      ! Daylight Saving Time Indicator
  Wetbulb,                                ! Humidity Indicating Type
  ,                                       ! Humidity Indicating Day Schedule Name
  DefaultMultipliers,                     ! Dry-Bulb Temperature Range Modifier Type
  ,                                       ! Dry-Bulb Temperature Range Modifier Schedule Name
  ASHRAETau,                              ! Solar Model Indicator
  ,                                       ! Beam Solar Day Schedule Name
  ,                                       ! Diffuse Solar Day Schedule Name
  0.473,                                  ! ASHRAE Taub {dimensionless}
  1.986;                                  ! ASHRAE Taud {dimensionless}

OS:ComponentData,
  {89525c0e-1cbc-4233-a250-61534ae0aa03}, ! Handle
  Component Data 1,                       ! Name
  {18e6aff4-e62b-4386-8c50-2e910cb2574e}, ! UUID
  {fedbcfc8-f828-4e72-90e6-38edd9c02763}, ! Version UUID
  1366307882,                             ! Creation Timestamp
  1366307882,                             ! Version Timestamp
  {d674623b-c867-4535-8049-c3ff6bc9b0ed}; ! Name of Object 1

