
OS:Version,
  {e939a038-17fd-4cea-9c24-86d61fbe05ed}, ! Handle
  0.9.3;                                  ! Version Identifier

OS:SizingPeriod:DesignDay,
  {748b92c1-5db4-4a13-a3b7-95d0b77e242e}, ! Handle
  OKLAHOMA_CITY Ann Hum_n 99% Condns DP=>MCDB, ! Name
  -6.3,                                   ! Maximum Dry-Bulb Temperature {C}
  0,                                      ! Daily Dry-Bulb Temperature Range {deltaC}
  -14.6,                                  ! Humidity Indicating Conditions at Maximum Dry-Bulb {BasedOnField A3}
  96646,                                  ! Barometric Pressure {Pa}
  6.1,                                    ! Wind Speed {m/s}
  0,                                      ! Wind Direction {deg}
  0,                                      ! Sky Clearness
  0,                                      ! Rain Indicator
  0,                                      ! Snow Indicator
  21,                                     ! Day of Month
  1,                                      ! Month
  WinterDesignDay,                        ! Day Type
  0,                                      ! Daylight Saving Time Indicator
  Dewpoint,                               ! Humidity Indicating Type
  ,                                       ! Humidity Indicating Day Schedule Name
  DefaultMultipliers,                     ! Dry-Bulb Temperature Range Modifier Type
  ,                                       ! Dry-Bulb Temperature Range Modifier Schedule Name
  ASHRAEClearSky;                         ! Solar Model Indicator

OS:ComponentData,
  {c53077f6-4e2c-4e34-beb1-a1eb44f48ce7}, ! Handle
  Component Data 1,                       ! Name
  {b20c9daa-b0d4-4b25-bd35-8290e144ac46}, ! UUID
  {8eb31660-fc60-4c79-af30-4f8f803895c6}, ! Version UUID
  1366309931,                             ! Creation Timestamp
  1366309931,                             ! Version Timestamp
  {748b92c1-5db4-4a13-a3b7-95d0b77e242e}; ! Name of Object 1

