
OS:Version,
  {ce1feab6-876e-4f2e-8dba-77246f1f4109}, ! Handle
  0.9.3;                                  ! Version Identifier

OS:SizingPeriod:DesignDay,
  {15ada719-4c21-4a51-9978-5fcee99e736c}, ! Handle
  WEST_PALM Ann Hum_n 99.6% Condns DP=>MCDB, ! Name
  11.3,                                   ! Maximum Dry-Bulb Temperature {C}
  0,                                      ! Daily Dry-Bulb Temperature Range {deltaC}
  -1.3,                                   ! Humidity Indicating Conditions at Maximum Dry-Bulb {BasedOnField A3}
  101253,                                 ! Barometric Pressure {Pa}
  3.9,                                    ! Wind Speed {m/s}
  320,                                    ! Wind Direction {deg}
  0,                                      ! Sky Clearness
  0,                                      ! Rain Indicator
  0,                                      ! Snow Indicator
  21,                                     ! Day of Month
  1,                                      ! Month
  WinterDesignDay,                        ! Day Type
  0,                                      ! Daylight Saving Time Indicator
  Dewpoint,                               ! Humidity Indicating Type
  ,                                       ! Humidity Indicating Day Schedule Name
  DefaultMultipliers,                     ! Dry-Bulb Temperature Range Modifier Type
  ,                                       ! Dry-Bulb Temperature Range Modifier Schedule Name
  ASHRAEClearSky;                         ! Solar Model Indicator

OS:ComponentData,
  {a4e2ae2b-fb0b-414d-9e9b-1df014aee8c4}, ! Handle
  Component Data 1,                       ! Name
  {d32ccf34-c2cb-4a20-af4a-bde4bd023085}, ! UUID
  {703c3a47-d49f-404f-97de-9cf625609014}, ! Version UUID
  1366306948,                             ! Creation Timestamp
  1366306948,                             ! Version Timestamp
  {15ada719-4c21-4a51-9978-5fcee99e736c}; ! Name of Object 1

