
OS:Version,
  {62bd23cf-7f32-4d88-96f4-0eccf5f84f58}, ! Handle
  0.9.3;                                  ! Version Identifier

OS:SizingPeriod:DesignDay,
  {eb5a9f32-e4e0-42e8-b6c1-7c7866e08081}, ! Handle
  Virginia Tech Arpt Ann Htg Wind 99.6% Condns WS=>MCDB, ! Name
  -5.4,                                   ! Maximum Dry-Bulb Temperature {C}
  0,                                      ! Daily Dry-Bulb Temperature Range {deltaC}
  -5.4,                                   ! Humidity Indicating Conditions at Maximum Dry-Bulb {BasedOnField A3}
  93756,                                  ! Barometric Pressure {Pa}
  11.8,                                   ! Wind Speed {m/s}
  290,                                    ! Wind Direction {deg}
  0,                                      ! Sky Clearness
  0,                                      ! Rain Indicator
  0,                                      ! Snow Indicator
  21,                                     ! Day of Month
  1,                                      ! Month
  WinterDesignDay,                        ! Day Type
  0,                                      ! Daylight Saving Time Indicator
  Wetbulb,                                ! Humidity Indicating Type
  ,                                       ! Humidity Indicating Day Schedule Name
  DefaultMultipliers,                     ! Dry-Bulb Temperature Range Modifier Type
  ,                                       ! Dry-Bulb Temperature Range Modifier Schedule Name
  ASHRAEClearSky;                         ! Solar Model Indicator

OS:ComponentData,
  {b77d3ffe-2916-48e5-a9df-b9ecd61ca3cc}, ! Handle
  Component Data 1,                       ! Name
  {e2e29e6c-49bc-40cc-b36f-3153f12c11d8}, ! UUID
  {b172b8b4-68d9-49c5-a9b4-b238f1c75c70}, ! Version UUID
  1366311022,                             ! Creation Timestamp
  1366311022,                             ! Version Timestamp
  {eb5a9f32-e4e0-42e8-b6c1-7c7866e08081}; ! Name of Object 1

