
OS:Version,
  {3f30e84e-1fd4-4dd5-9501-60f26a043a1b}, ! Handle
  0.9.3;                                  ! Version Identifier

OS:SizingPeriod:DesignDay,
  {52caca66-65f5-4b36-888a-35d3025fa683}, ! Handle
  Rogers  Awos Ann Clg 1% Condns WB=>MDB, ! Name
  30.2,                                   ! Maximum Dry-Bulb Temperature {C}
  9.9,                                    ! Daily Dry-Bulb Temperature Range {deltaC}
  24.1,                                   ! Humidity Indicating Conditions at Maximum Dry-Bulb {BasedOnField A3}
  96438,                                  ! Barometric Pressure {Pa}
  3.7,                                    ! Wind Speed {m/s}
  240,                                    ! Wind Direction {deg}
  0,                                      ! Sky Clearness
  0,                                      ! Rain Indicator
  0,                                      ! Snow Indicator
  21,                                     ! Day of Month
  7,                                      ! Month
  SummerDesignDay,                        ! Day Type
  0,                                      ! Daylight Saving Time Indicator
  Wetbulb,                                ! Humidity Indicating Type
  ,                                       ! Humidity Indicating Day Schedule Name
  DefaultMultipliers,                     ! Dry-Bulb Temperature Range Modifier Type
  ,                                       ! Dry-Bulb Temperature Range Modifier Schedule Name
  ASHRAETau,                              ! Solar Model Indicator
  ,                                       ! Beam Solar Day Schedule Name
  ,                                       ! Diffuse Solar Day Schedule Name
  0.453,                                  ! ASHRAE Taub {dimensionless}
  2.083;                                  ! ASHRAE Taud {dimensionless}

OS:ComponentData,
  {0d7e38af-a85f-48ee-ad4a-a6c24ed7e631}, ! Handle
  Component Data 1,                       ! Name
  {e7ffb8fd-bf87-491a-abd6-4e5e6b3fe35a}, ! UUID
  {7718715b-325d-49d5-8e91-2a1c88264255}, ! Version UUID
  1366306244,                             ! Creation Timestamp
  1366306244,                             ! Version Timestamp
  {52caca66-65f5-4b36-888a-35d3025fa683}; ! Name of Object 1

