
OS:Version,
  {3cb8ca44-9912-4b62-9c1f-bf77b4be6b2b}, ! Handle
  0.9.3;                                  ! Version Identifier

OS:SizingPeriod:DesignDay,
  {dd00878d-ee74-4a41-97cc-a08db3ad55c0}, ! Handle
  Monroe Regional Ap Ann Clg .4% Condns Enth=>MDB, ! Name
  32.9,                                   ! Maximum Dry-Bulb Temperature {C}
  10.6,                                   ! Daily Dry-Bulb Temperature Range {deltaC}
  85800,                                  ! Humidity Indicating Conditions at Maximum Dry-Bulb {BasedOnField A3}
  100845,                                 ! Barometric Pressure {Pa}
  2.8,                                    ! Wind Speed {m/s}
  240,                                    ! Wind Direction {deg}
  0,                                      ! Sky Clearness
  0,                                      ! Rain Indicator
  0,                                      ! Snow Indicator
  21,                                     ! Day of Month
  7,                                      ! Month
  SummerDesignDay,                        ! Day Type
  0,                                      ! Daylight Saving Time Indicator
  Enthalpy,                               ! Humidity Indicating Type
  ,                                       ! Humidity Indicating Day Schedule Name
  DefaultMultipliers,                     ! Dry-Bulb Temperature Range Modifier Type
  ,                                       ! Dry-Bulb Temperature Range Modifier Schedule Name
  ASHRAETau,                              ! Solar Model Indicator
  ,                                       ! Beam Solar Day Schedule Name
  ,                                       ! Diffuse Solar Day Schedule Name
  0.512,                                  ! ASHRAE Taub {dimensionless}
  1.931;                                  ! ASHRAE Taud {dimensionless}

OS:ComponentData,
  {93f6d99e-77a6-4b01-b1c3-1adb8c10bb23}, ! Handle
  Component Data 1,                       ! Name
  {da437d54-2d61-4c7a-a47e-5223f6fb082c}, ! UUID
  {0590ce9f-ec53-47db-9688-e6d06714641f}, ! Version UUID
  1366307736,                             ! Creation Timestamp
  1366307736,                             ! Version Timestamp
  {dd00878d-ee74-4a41-97cc-a08db3ad55c0}; ! Name of Object 1

