
OS:Version,
  {be9cdc30-ce92-4087-a6bb-f0e5c6f10bba}, ! Handle
  0.9.3;                                  ! Version Identifier

OS:SizingPeriod:DesignDay,
  {fcd0ca71-ca34-4d60-9ca0-4b6d6144f157}, ! Handle
  Valparaiso Hurlburt Ann Htg 99.6% Condns DB, ! Name
  -1.5,                                   ! Maximum Dry-Bulb Temperature {C}
  0,                                      ! Daily Dry-Bulb Temperature Range {deltaC}
  -1.5,                                   ! Humidity Indicating Conditions at Maximum Dry-Bulb {BasedOnField A3}
  101181,                                 ! Barometric Pressure {Pa}
  3.3,                                    ! Wind Speed {m/s}
  0,                                      ! Wind Direction {deg}
  0,                                      ! Sky Clearness
  0,                                      ! Rain Indicator
  0,                                      ! Snow Indicator
  21,                                     ! Day of Month
  1,                                      ! Month
  WinterDesignDay,                        ! Day Type
  0,                                      ! Daylight Saving Time Indicator
  Wetbulb,                                ! Humidity Indicating Type
  ,                                       ! Humidity Indicating Day Schedule Name
  DefaultMultipliers,                     ! Dry-Bulb Temperature Range Modifier Type
  ,                                       ! Dry-Bulb Temperature Range Modifier Schedule Name
  ASHRAEClearSky;                         ! Solar Model Indicator

OS:ComponentData,
  {0647fbf1-1e1e-48e4-9566-29b0d1b34159}, ! Handle
  Component Data 1,                       ! Name
  {4b3425c7-cfe0-4d39-929d-b29801f647e9}, ! UUID
  {b73a0db1-4581-4871-9383-f5e5538f8577}, ! Version UUID
  1366306805,                             ! Creation Timestamp
  1366306805,                             ! Version Timestamp
  {fcd0ca71-ca34-4d60-9ca0-4b6d6144f157}; ! Name of Object 1

