
OS:Version,
  {06f4fe58-90f4-48a7-bf4d-f6455e5d10f1}, ! Handle
  0.9.3;                                  ! Version Identifier

OS:SizingPeriod:DesignDay,
  {2e75ae37-7580-472c-881e-0d4e6ee7dbfc}, ! Handle
  TALKEETNA Ann Clg 1% Condns DB=>MWB,    ! Name
  23.1,                                   ! Maximum Dry-Bulb Temperature {C}
  8.8,                                    ! Daily Dry-Bulb Temperature Range {deltaC}
  14.7,                                   ! Humidity Indicating Conditions at Maximum Dry-Bulb {BasedOnField A3}
  100070,                                 ! Barometric Pressure {Pa}
  2.9,                                    ! Wind Speed {m/s}
  180,                                    ! Wind Direction {deg}
  0,                                      ! Sky Clearness
  0,                                      ! Rain Indicator
  0,                                      ! Snow Indicator
  21,                                     ! Day of Month
  7,                                      ! Month
  SummerDesignDay,                        ! Day Type
  0,                                      ! Daylight Saving Time Indicator
  Wetbulb,                                ! Humidity Indicating Type
  ,                                       ! Humidity Indicating Day Schedule Name
  DefaultMultipliers,                     ! Dry-Bulb Temperature Range Modifier Type
  ,                                       ! Dry-Bulb Temperature Range Modifier Schedule Name
  ASHRAETau,                              ! Solar Model Indicator
  ,                                       ! Beam Solar Day Schedule Name
  ,                                       ! Diffuse Solar Day Schedule Name
  0.379,                                  ! ASHRAE Taub {dimensionless}
  2.177;                                  ! ASHRAE Taud {dimensionless}

OS:ComponentData,
  {39cd3040-dfcb-4e04-8d6e-a2a6be053c49}, ! Handle
  Component Data 1,                       ! Name
  {48cf5327-b1b6-4fbd-bed6-99e1659c0d2a}, ! UUID
  {426e2f50-e410-40ea-93b1-617094377a54}, ! Version UUID
  1366305582,                             ! Creation Timestamp
  1366305582,                             ! Version Timestamp
  {2e75ae37-7580-472c-881e-0d4e6ee7dbfc}; ! Name of Object 1

