
OS:Version,
  {aa108ab4-b846-433b-927d-f530782929f5}, ! Handle
  0.9.3;                                  ! Version Identifier

OS:SizingPeriod:DesignDay,
  {9f0a7903-ca36-431a-a0b9-aa1bf7e383ff}, ! Handle
  Palm Springs Intl Ann Htg 99.6% Condns DB, ! Name
  5.9,                                    ! Maximum Dry-Bulb Temperature {C}
  0,                                      ! Daily Dry-Bulb Temperature Range {deltaC}
  5.9,                                    ! Humidity Indicating Conditions at Maximum Dry-Bulb {BasedOnField A3}
  99595,                                  ! Barometric Pressure {Pa}
  2,                                      ! Wind Speed {m/s}
  330,                                    ! Wind Direction {deg}
  0,                                      ! Sky Clearness
  0,                                      ! Rain Indicator
  0,                                      ! Snow Indicator
  21,                                     ! Day of Month
  12,                                     ! Month
  WinterDesignDay,                        ! Day Type
  0,                                      ! Daylight Saving Time Indicator
  Wetbulb,                                ! Humidity Indicating Type
  ,                                       ! Humidity Indicating Day Schedule Name
  DefaultMultipliers,                     ! Dry-Bulb Temperature Range Modifier Type
  ,                                       ! Dry-Bulb Temperature Range Modifier Schedule Name
  ASHRAEClearSky;                         ! Solar Model Indicator

OS:ComponentData,
  {b2be4f32-efcc-4b4c-8d0f-95b44ee2f033}, ! Handle
  Component Data 1,                       ! Name
  {d0bffa1e-e7ae-4bb0-b147-80a91cdbd700}, ! UUID
  {39792e16-71cb-4cd8-91a8-dd8c664f9c7b}, ! Version UUID
  1366306530,                             ! Creation Timestamp
  1366306530,                             ! Version Timestamp
  {9f0a7903-ca36-431a-a0b9-aa1bf7e383ff}; ! Name of Object 1

