
OS:Version,
  {d35d02f3-288f-42dd-901b-17bc91e17d34}, ! Handle
  0.9.3;                                  ! Version Identifier

OS:SizingPeriod:DesignDay,
  {8180cb24-d3d0-4dea-96ce-db3c8f16e3e9}, ! Handle
  Salinas Municipal Ap Ann Htg 99.6% Condns DB, ! Name
  1,                                      ! Maximum Dry-Bulb Temperature {C}
  0,                                      ! Daily Dry-Bulb Temperature Range {deltaC}
  1,                                      ! Humidity Indicating Conditions at Maximum Dry-Bulb {BasedOnField A3}
  101073,                                 ! Barometric Pressure {Pa}
  2.6,                                    ! Wind Speed {m/s}
  120,                                    ! Wind Direction {deg}
  0,                                      ! Sky Clearness
  0,                                      ! Rain Indicator
  0,                                      ! Snow Indicator
  21,                                     ! Day of Month
  12,                                     ! Month
  WinterDesignDay,                        ! Day Type
  0,                                      ! Daylight Saving Time Indicator
  Wetbulb,                                ! Humidity Indicating Type
  ,                                       ! Humidity Indicating Day Schedule Name
  DefaultMultipliers,                     ! Dry-Bulb Temperature Range Modifier Type
  ,                                       ! Dry-Bulb Temperature Range Modifier Schedule Name
  ASHRAEClearSky;                         ! Solar Model Indicator

OS:ComponentData,
  {e09b19cb-bcde-459b-90b9-696df2200933}, ! Handle
  Component Data 1,                       ! Name
  {36d3f7c5-7eee-47fe-99fc-714d5e86b1ea}, ! UUID
  {bcae8883-61d6-474a-9b10-60738c76f329}, ! Version UUID
  1366306570,                             ! Creation Timestamp
  1366306570,                             ! Version Timestamp
  {8180cb24-d3d0-4dea-96ce-db3c8f16e3e9}; ! Name of Object 1

