
OS:Version,
  {f3c9492c-429e-4020-b2d1-a56628174686}, ! Handle
  0.9.3;                                  ! Version Identifier

OS:SizingPeriod:DesignDay,
  {2d222598-3d81-44e7-8db9-f4e970d0622f}, ! Handle
  NORTH_BEND Ann Htg 99% Condns DB,       ! Name
  0.9,                                    ! Maximum Dry-Bulb Temperature {C}
  0,                                      ! Daily Dry-Bulb Temperature Range {deltaC}
  0.9,                                    ! Humidity Indicating Conditions at Maximum Dry-Bulb {BasedOnField A3}
  101265,                                 ! Barometric Pressure {Pa}
  2.6,                                    ! Wind Speed {m/s}
  150,                                    ! Wind Direction {deg}
  0,                                      ! Sky Clearness
  0,                                      ! Rain Indicator
  0,                                      ! Snow Indicator
  21,                                     ! Day of Month
  12,                                     ! Month
  WinterDesignDay,                        ! Day Type
  0,                                      ! Daylight Saving Time Indicator
  Wetbulb,                                ! Humidity Indicating Type
  ,                                       ! Humidity Indicating Day Schedule Name
  DefaultMultipliers,                     ! Dry-Bulb Temperature Range Modifier Type
  ,                                       ! Dry-Bulb Temperature Range Modifier Schedule Name
  ASHRAEClearSky;                         ! Solar Model Indicator

OS:ComponentData,
  {dca65bb4-aa86-4d1d-9d7f-1f3f689be1e2}, ! Handle
  Component Data 1,                       ! Name
  {b0ab4f96-df85-4162-a1a0-a0f39acda5ea}, ! UUID
  {48d94289-7fed-42ec-b390-ce227979bc93}, ! Version UUID
  1366310044,                             ! Creation Timestamp
  1366310044,                             ! Version Timestamp
  {2d222598-3d81-44e7-8db9-f4e970d0622f}; ! Name of Object 1

