
OS:Version,
  {04963871-5518-4f74-8707-78e5513add22}, ! Handle
  0.9.3;                                  ! Version Identifier

OS:SizingPeriod:DesignDay,
  {63f375f8-b3b2-4f52-a8ea-ab520be771bd}, ! Handle
  WACO Ann Clg 1% Condns WB=>MDB,         ! Name
  32.8,                                   ! Maximum Dry-Bulb Temperature {C}
  11.9,                                   ! Daily Dry-Bulb Temperature Range {deltaC}
  25.6,                                   ! Humidity Indicating Conditions at Maximum Dry-Bulb {BasedOnField A3}
  99477,                                  ! Barometric Pressure {Pa}
  4.9,                                    ! Wind Speed {m/s}
  180,                                    ! Wind Direction {deg}
  0,                                      ! Sky Clearness
  0,                                      ! Rain Indicator
  0,                                      ! Snow Indicator
  21,                                     ! Day of Month
  7,                                      ! Month
  SummerDesignDay,                        ! Day Type
  0,                                      ! Daylight Saving Time Indicator
  Wetbulb,                                ! Humidity Indicating Type
  ,                                       ! Humidity Indicating Day Schedule Name
  DefaultMultipliers,                     ! Dry-Bulb Temperature Range Modifier Type
  ,                                       ! Dry-Bulb Temperature Range Modifier Schedule Name
  ASHRAETau,                              ! Solar Model Indicator
  ,                                       ! Beam Solar Day Schedule Name
  ,                                       ! Diffuse Solar Day Schedule Name
  0.46,                                   ! ASHRAE Taub {dimensionless}
  2.098;                                  ! ASHRAE Taud {dimensionless}

OS:ComponentData,
  {7efac36e-bcd5-48ae-9ee9-70eb11047568}, ! Handle
  Component Data 1,                       ! Name
  {ec741493-2d9d-473d-9e70-f5a2515a8b1b}, ! UUID
  {85f8f51b-ed42-4232-aace-6381f45e11cb}, ! Version UUID
  1366310916,                             ! Creation Timestamp
  1366310916,                             ! Version Timestamp
  {63f375f8-b3b2-4f52-a8ea-ab520be771bd}; ! Name of Object 1

