
OS:Version,
  {2f613879-3ed3-4063-a793-84283e719290}, ! Handle
  0.9.3;                                  ! Version Identifier

OS:SizingPeriod:DesignDay,
  {9593a0d4-392e-41fa-a8b9-061397485ada}, ! Handle
  Rome R B Russell Ap Ann Clg .4% Condns Enth=>MDB, ! Name
  32.1,                                   ! Maximum Dry-Bulb Temperature {C}
  11.6,                                   ! Daily Dry-Bulb Temperature Range {deltaC}
  79700,                                  ! Humidity Indicating Conditions at Maximum Dry-Bulb {BasedOnField A3}
  99004,                                  ! Barometric Pressure {Pa}
  2.4,                                    ! Wind Speed {m/s}
  280,                                    ! Wind Direction {deg}
  0,                                      ! Sky Clearness
  0,                                      ! Rain Indicator
  0,                                      ! Snow Indicator
  21,                                     ! Day of Month
  7,                                      ! Month
  SummerDesignDay,                        ! Day Type
  0,                                      ! Daylight Saving Time Indicator
  Enthalpy,                               ! Humidity Indicating Type
  ,                                       ! Humidity Indicating Day Schedule Name
  DefaultMultipliers,                     ! Dry-Bulb Temperature Range Modifier Type
  ,                                       ! Dry-Bulb Temperature Range Modifier Schedule Name
  ASHRAETau,                              ! Solar Model Indicator
  ,                                       ! Beam Solar Day Schedule Name
  ,                                       ! Diffuse Solar Day Schedule Name
  0.577,                                  ! ASHRAE Taub {dimensionless}
  1.731;                                  ! ASHRAE Taud {dimensionless}

OS:ComponentData,
  {3f4768d7-549b-4f19-b9bd-9dafa59bd80b}, ! Handle
  Component Data 1,                       ! Name
  {d2112e22-ee7c-4154-9f0e-baa390baf8b2}, ! UUID
  {2100fc1d-9156-4827-871d-9426dd6dac49}, ! Version UUID
  1366307036,                             ! Creation Timestamp
  1366307036,                             ! Version Timestamp
  {9593a0d4-392e-41fa-a8b9-061397485ada}; ! Name of Object 1

