
OS:Version,
  {f2368b57-1e05-4c99-b72e-b2ee9067da47}, ! Handle
  0.9.3;                                  ! Version Identifier

OS:SizingPeriod:DesignDay,
  {289c8639-e351-4fa2-8313-b3d51a570153}, ! Handle
  Newark Ann Clg 1% Condns WB=>MDB,       ! Name
  29.9,                                   ! Maximum Dry-Bulb Temperature {C}
  8.9,                                    ! Daily Dry-Bulb Temperature Range {deltaC}
  24.6,                                   ! Humidity Indicating Conditions at Maximum Dry-Bulb {BasedOnField A3}
  101217,                                 ! Barometric Pressure {Pa}
  5.8,                                    ! Wind Speed {m/s}
  250,                                    ! Wind Direction {deg}
  0,                                      ! Sky Clearness
  0,                                      ! Rain Indicator
  0,                                      ! Snow Indicator
  21,                                     ! Day of Month
  7,                                      ! Month
  SummerDesignDay,                        ! Day Type
  0,                                      ! Daylight Saving Time Indicator
  Wetbulb,                                ! Humidity Indicating Type
  ,                                       ! Humidity Indicating Day Schedule Name
  DefaultMultipliers,                     ! Dry-Bulb Temperature Range Modifier Type
  ,                                       ! Dry-Bulb Temperature Range Modifier Schedule Name
  ASHRAETau,                              ! Solar Model Indicator
  ,                                       ! Beam Solar Day Schedule Name
  ,                                       ! Diffuse Solar Day Schedule Name
  0.528,                                  ! ASHRAE Taub {dimensionless}
  1.831;                                  ! ASHRAE Taud {dimensionless}

OS:ComponentData,
  {ac07b837-6a81-447a-9693-a0fd0b09bac6}, ! Handle
  Component Data 1,                       ! Name
  {3e79299c-1e02-4a56-9a3a-08a8baa17e6c}, ! UUID
  {bfd8e9d6-22b7-4fc6-8d91-5351db292851}, ! Version UUID
  1366309332,                             ! Creation Timestamp
  1366309332,                             ! Version Timestamp
  {289c8639-e351-4fa2-8313-b3d51a570153}; ! Name of Object 1

