
OS:Version,
  {878b6485-247c-4119-87db-49d8528f9cc7}, ! Handle
  0.9.3;                                  ! Version Identifier

OS:SizingPeriod:DesignDay,
  {ad409781-38f7-4490-9201-b23bc0c31aa4}, ! Handle
  Pullman Moscow Rgnl Ann Clg 1% Condns WB=>MDB, ! Name
  29.1,                                   ! Maximum Dry-Bulb Temperature {C}
  16.9,                                   ! Daily Dry-Bulb Temperature Range {deltaC}
  19.1,                                   ! Humidity Indicating Conditions at Maximum Dry-Bulb {BasedOnField A3}
  92321,                                  ! Barometric Pressure {Pa}
  2.2,                                    ! Wind Speed {m/s}
  260,                                    ! Wind Direction {deg}
  0,                                      ! Sky Clearness
  0,                                      ! Rain Indicator
  0,                                      ! Snow Indicator
  21,                                     ! Day of Month
  7,                                      ! Month
  SummerDesignDay,                        ! Day Type
  0,                                      ! Daylight Saving Time Indicator
  Wetbulb,                                ! Humidity Indicating Type
  ,                                       ! Humidity Indicating Day Schedule Name
  DefaultMultipliers,                     ! Dry-Bulb Temperature Range Modifier Type
  ,                                       ! Dry-Bulb Temperature Range Modifier Schedule Name
  ASHRAETau,                              ! Solar Model Indicator
  ,                                       ! Beam Solar Day Schedule Name
  ,                                       ! Diffuse Solar Day Schedule Name
  0.365,                                  ! ASHRAE Taub {dimensionless}
  2.328;                                  ! ASHRAE Taud {dimensionless}

OS:ComponentData,
  {359960c8-74f1-4b5b-ad65-cd3f682703a6}, ! Handle
  Component Data 1,                       ! Name
  {c1ccbb97-de83-4002-8491-46aedad68a9d}, ! UUID
  {ddccb857-5d4f-4a2e-a282-4e8515169a73}, ! Version UUID
  1366311331,                             ! Creation Timestamp
  1366311331,                             ! Version Timestamp
  {ad409781-38f7-4490-9201-b23bc0c31aa4}; ! Name of Object 1

