
OS:Version,
  {8e6fdd8b-ea6a-402f-b327-b965bf8ed7f4}, ! Handle
  0.9.3;                                  ! Version Identifier

OS:SizingPeriod:DesignDay,
  {90c96bb9-4eb0-4b03-bfca-9b80240c96c7}, ! Handle
  Mccomb Pike County Ap Ann Clg 2% Condns WB=>MDB, ! Name
  30.5,                                   ! Maximum Dry-Bulb Temperature {C}
  10.8,                                   ! Daily Dry-Bulb Temperature Range {deltaC}
  25.5,                                   ! Humidity Indicating Conditions at Maximum Dry-Bulb {BasedOnField A3}
  99820,                                  ! Barometric Pressure {Pa}
  2.9,                                    ! Wind Speed {m/s}
  250,                                    ! Wind Direction {deg}
  0,                                      ! Sky Clearness
  0,                                      ! Rain Indicator
  0,                                      ! Snow Indicator
  21,                                     ! Day of Month
  7,                                      ! Month
  SummerDesignDay,                        ! Day Type
  0,                                      ! Daylight Saving Time Indicator
  Wetbulb,                                ! Humidity Indicating Type
  ,                                       ! Humidity Indicating Day Schedule Name
  DefaultMultipliers,                     ! Dry-Bulb Temperature Range Modifier Type
  ,                                       ! Dry-Bulb Temperature Range Modifier Schedule Name
  ASHRAETau,                              ! Solar Model Indicator
  ,                                       ! Beam Solar Day Schedule Name
  ,                                       ! Diffuse Solar Day Schedule Name
  0.539,                                  ! ASHRAE Taub {dimensionless}
  1.852;                                  ! ASHRAE Taud {dimensionless}

OS:ComponentData,
  {17b4ba7e-9db3-4288-99db-2e43caeacf3d}, ! Handle
  Component Data 1,                       ! Name
  {b2162d86-15ba-4af5-b8b5-4f2d47e00f04}, ! UUID
  {5d230530-f8e8-424e-aa8e-a4f38103c890}, ! Version UUID
  1366308656,                             ! Creation Timestamp
  1366308656,                             ! Version Timestamp
  {90c96bb9-4eb0-4b03-bfca-9b80240c96c7}; ! Name of Object 1

