
OS:Version,
  {381c8483-d3be-493d-821b-c0a9dc4e2f8e}, ! Handle
  0.9.3;                                  ! Version Identifier

OS:SizingPeriod:DesignDay,
  {b847b836-ab2f-4090-99cd-9131ae299f5f}, ! Handle
  Wichita Falls/Sheppard Ann Clg 2% Condns WB=>MDB, ! Name
  32.2,                                   ! Maximum Dry-Bulb Temperature {C}
  13,                                     ! Daily Dry-Bulb Temperature Range {deltaC}
  24.2,                                   ! Humidity Indicating Conditions at Maximum Dry-Bulb {BasedOnField A3}
  97609,                                  ! Barometric Pressure {Pa}
  5.5,                                    ! Wind Speed {m/s}
  180,                                    ! Wind Direction {deg}
  0,                                      ! Sky Clearness
  0,                                      ! Rain Indicator
  0,                                      ! Snow Indicator
  21,                                     ! Day of Month
  7,                                      ! Month
  SummerDesignDay,                        ! Day Type
  0,                                      ! Daylight Saving Time Indicator
  Wetbulb,                                ! Humidity Indicating Type
  ,                                       ! Humidity Indicating Day Schedule Name
  DefaultMultipliers,                     ! Dry-Bulb Temperature Range Modifier Type
  ,                                       ! Dry-Bulb Temperature Range Modifier Schedule Name
  ASHRAETau,                              ! Solar Model Indicator
  ,                                       ! Beam Solar Day Schedule Name
  ,                                       ! Diffuse Solar Day Schedule Name
  0.44,                                   ! ASHRAE Taub {dimensionless}
  2.15;                                   ! ASHRAE Taud {dimensionless}

OS:ComponentData,
  {f6c1bb2a-3154-4ef0-8890-67e8aff2dad0}, ! Handle
  Component Data 1,                       ! Name
  {713d93be-d4b4-4cb7-ae97-0183ce0664c5}, ! UUID
  {e8583356-6b94-40bb-aa8c-9711a57c385b}, ! Version UUID
  1366310932,                             ! Creation Timestamp
  1366310932,                             ! Version Timestamp
  {b847b836-ab2f-4090-99cd-9131ae299f5f}; ! Name of Object 1

