
OS:Version,
  {33115106-8189-4725-96d1-12886bd66707}, ! Handle
  0.9.3;                                  ! Version Identifier

OS:SizingPeriod:DesignDay,
  {e8cfdb88-b2e4-427f-9597-70010897bebe}, ! Handle
  Ponca City Municipal Ap  Sgp Ann Hum_n 99% Condns DP=>MCDB, ! Name
  -7.4,                                   ! Maximum Dry-Bulb Temperature {C}
  0,                                      ! Daily Dry-Bulb Temperature Range {deltaC}
  -15.6,                                  ! Humidity Indicating Conditions at Maximum Dry-Bulb {BasedOnField A3}
  97563,                                  ! Barometric Pressure {Pa}
  3.7,                                    ! Wind Speed {m/s}
  350,                                    ! Wind Direction {deg}
  0,                                      ! Sky Clearness
  0,                                      ! Rain Indicator
  0,                                      ! Snow Indicator
  21,                                     ! Day of Month
  1,                                      ! Month
  WinterDesignDay,                        ! Day Type
  0,                                      ! Daylight Saving Time Indicator
  Dewpoint,                               ! Humidity Indicating Type
  ,                                       ! Humidity Indicating Day Schedule Name
  DefaultMultipliers,                     ! Dry-Bulb Temperature Range Modifier Type
  ,                                       ! Dry-Bulb Temperature Range Modifier Schedule Name
  ASHRAEClearSky;                         ! Solar Model Indicator

OS:ComponentData,
  {7b44ee90-7f76-42af-be95-6ba6c0c4abde}, ! Handle
  Component Data 1,                       ! Name
  {913edffb-72b6-42a5-9501-662cb3cf4253}, ! UUID
  {8d75fd57-85c2-407c-8db2-0ca4cb06551d}, ! Version UUID
  1366309935,                             ! Creation Timestamp
  1366309935,                             ! Version Timestamp
  {e8cfdb88-b2e4-427f-9597-70010897bebe}; ! Name of Object 1

