
OS:Version,
  {571922a1-9b60-43d2-882d-5260b995775b}, ! Handle
  0.9.3;                                  ! Version Identifier

OS:SizingPeriod:DesignDay,
  {afe0ca1c-553e-482a-9461-f770802b2a77}, ! Handle
  San Francisco Intl Ap Ann Clg 1% Condns DP=>MDB, ! Name
  19.2,                                   ! Maximum Dry-Bulb Temperature {C}
  8.5,                                    ! Daily Dry-Bulb Temperature Range {deltaC}
  15.3,                                   ! Humidity Indicating Conditions at Maximum Dry-Bulb {BasedOnField A3}
  101301,                                 ! Barometric Pressure {Pa}
  5.9,                                    ! Wind Speed {m/s}
  310,                                    ! Wind Direction {deg}
  0,                                      ! Sky Clearness
  0,                                      ! Rain Indicator
  0,                                      ! Snow Indicator
  21,                                     ! Day of Month
  8,                                      ! Month
  SummerDesignDay,                        ! Day Type
  0,                                      ! Daylight Saving Time Indicator
  Dewpoint,                               ! Humidity Indicating Type
  ,                                       ! Humidity Indicating Day Schedule Name
  DefaultMultipliers,                     ! Dry-Bulb Temperature Range Modifier Type
  ,                                       ! Dry-Bulb Temperature Range Modifier Schedule Name
  ASHRAETau,                              ! Solar Model Indicator
  ,                                       ! Beam Solar Day Schedule Name
  ,                                       ! Diffuse Solar Day Schedule Name
  0.365,                                  ! ASHRAE Taub {dimensionless}
  2.435;                                  ! ASHRAE Taud {dimensionless}

OS:ComponentData,
  {2ce0ccb0-6ba3-4cc2-955d-3eb0d4aa39b4}, ! Handle
  Component Data 1,                       ! Name
  {ca93e9d6-0a5c-4a52-82e4-6c4a4e2ae1b8}, ! UUID
  {0d2cc268-855c-4de1-b00a-7b06af1feed2}, ! Version UUID
  1366306596,                             ! Creation Timestamp
  1366306596,                             ! Version Timestamp
  {afe0ca1c-553e-482a-9461-f770802b2a77}; ! Name of Object 1

