
OS:Version,
  {8e2af2ab-a6f7-4290-91e3-48651bb66c7f}, ! Handle
  0.9.3;                                  ! Version Identifier

OS:SizingPeriod:DesignDay,
  {9ef61bf3-cda2-45a7-a87b-10c22270d243}, ! Handle
  Norfolk International Ap Ann Hum_n 99.6% Condns DP=>MCDB, ! Name
  -3,                                     ! Maximum Dry-Bulb Temperature {C}
  0,                                      ! Daily Dry-Bulb Temperature Range {deltaC}
  -16.2,                                  ! Humidity Indicating Conditions at Maximum Dry-Bulb {BasedOnField A3}
  101241,                                 ! Barometric Pressure {Pa}
  4.8,                                    ! Wind Speed {m/s}
  0,                                      ! Wind Direction {deg}
  0,                                      ! Sky Clearness
  0,                                      ! Rain Indicator
  0,                                      ! Snow Indicator
  21,                                     ! Day of Month
  1,                                      ! Month
  WinterDesignDay,                        ! Day Type
  0,                                      ! Daylight Saving Time Indicator
  Dewpoint,                               ! Humidity Indicating Type
  ,                                       ! Humidity Indicating Day Schedule Name
  DefaultMultipliers,                     ! Dry-Bulb Temperature Range Modifier Type
  ,                                       ! Dry-Bulb Temperature Range Modifier Schedule Name
  ASHRAEClearSky;                         ! Solar Model Indicator

OS:ComponentData,
  {5e01b03b-2557-4414-af25-0ba7b874e411}, ! Handle
  Component Data 1,                       ! Name
  {961adeef-6f4c-4461-91a6-39876e028aa0}, ! UUID
  {6edfa5d6-c4b0-4c4f-bdb8-ba073c8d9da3}, ! Version UUID
  1366311133,                             ! Creation Timestamp
  1366311133,                             ! Version Timestamp
  {9ef61bf3-cda2-45a7-a87b-10c22270d243}; ! Name of Object 1

