
OS:Version,
  {9e52ca22-fc4e-4dc6-b5d2-789ec7481ca0}, ! Handle
  0.9.3;                                  ! Version Identifier

OS:SizingPeriod:DesignDay,
  {f7c96c22-46a4-46bf-9383-893e9d53f450}, ! Handle
  Reno Tahoe International Ap Ann Htg Wind 99.6% Condns WS=>MCDB, ! Name
  8.8,                                    ! Maximum Dry-Bulb Temperature {C}
  0,                                      ! Daily Dry-Bulb Temperature Range {deltaC}
  8.8,                                    ! Humidity Indicating Conditions at Maximum Dry-Bulb {BasedOnField A3}
  86208,                                  ! Barometric Pressure {Pa}
  14.1,                                   ! Wind Speed {m/s}
  180,                                    ! Wind Direction {deg}
  0,                                      ! Sky Clearness
  0,                                      ! Rain Indicator
  0,                                      ! Snow Indicator
  21,                                     ! Day of Month
  1,                                      ! Month
  WinterDesignDay,                        ! Day Type
  0,                                      ! Daylight Saving Time Indicator
  Wetbulb,                                ! Humidity Indicating Type
  ,                                       ! Humidity Indicating Day Schedule Name
  DefaultMultipliers,                     ! Dry-Bulb Temperature Range Modifier Type
  ,                                       ! Dry-Bulb Temperature Range Modifier Schedule Name
  ASHRAEClearSky;                         ! Solar Model Indicator

OS:ComponentData,
  {edeaae2a-51ad-40d9-b39b-ac175fd233b0}, ! Handle
  Component Data 1,                       ! Name
  {d36e5d87-cca9-4483-be20-059f4a2a2886}, ! UUID
  {b222d6a1-0c72-4a7e-ac42-a0aadefeac8d}, ! Version UUID
  1366309534,                             ! Creation Timestamp
  1366309534,                             ! Version Timestamp
  {f7c96c22-46a4-46bf-9383-893e9d53f450}; ! Name of Object 1

