
OS:Version,
  {c73c6ebe-4a28-4e4a-a27c-e8c29c5bc8dc}, ! Handle
  0.9.3;                                  ! Version Identifier

OS:SizingPeriod:DesignDay,
  {1ec27536-e3e2-403e-b034-6eeb64c53824}, ! Handle
  Nenana Municipal Ap Ann Clg 2% Condns Enth=>MDB, ! Name
  21.6,                                   ! Maximum Dry-Bulb Temperature {C}
  11.3,                                   ! Daily Dry-Bulb Temperature Range {deltaC}
  42800,                                  ! Humidity Indicating Conditions at Maximum Dry-Bulb {BasedOnField A3}
  100022,                                 ! Barometric Pressure {Pa}
  2.6,                                    ! Wind Speed {m/s}
  60,                                     ! Wind Direction {deg}
  0,                                      ! Sky Clearness
  0,                                      ! Rain Indicator
  0,                                      ! Snow Indicator
  21,                                     ! Day of Month
  7,                                      ! Month
  SummerDesignDay,                        ! Day Type
  0,                                      ! Daylight Saving Time Indicator
  Enthalpy,                               ! Humidity Indicating Type
  ,                                       ! Humidity Indicating Day Schedule Name
  DefaultMultipliers,                     ! Dry-Bulb Temperature Range Modifier Type
  ,                                       ! Dry-Bulb Temperature Range Modifier Schedule Name
  ASHRAETau,                              ! Solar Model Indicator
  ,                                       ! Beam Solar Day Schedule Name
  ,                                       ! Diffuse Solar Day Schedule Name
  0.38,                                   ! ASHRAE Taub {dimensionless}
  2.23;                                   ! ASHRAE Taud {dimensionless}

OS:ComponentData,
  {a9d4a160-53c1-4893-98e1-35ac2d7c2876}, ! Handle
  Component Data 1,                       ! Name
  {251be344-f1fb-4121-a516-0b05cfee5b04}, ! UUID
  {092bd32b-9231-4811-8baa-d9477c1b4655}, ! Version UUID
  1366305442,                             ! Creation Timestamp
  1366305442,                             ! Version Timestamp
  {1ec27536-e3e2-403e-b034-6eeb64c53824}; ! Name of Object 1

