
OS:Version,
  {e0d76ace-b55d-4924-940f-6f5df6eca9e3}, ! Handle
  0.9.3;                                  ! Version Identifier

OS:SizingPeriod:DesignDay,
  {9b2c6e4c-a400-4030-bff1-3981b61547d0}, ! Handle
  Owatonna  Awos Ann Htg Wind 99.6% Condns WS=>MCDB, ! Name
  -6.9,                                   ! Maximum Dry-Bulb Temperature {C}
  0,                                      ! Daily Dry-Bulb Temperature Range {deltaC}
  -6.9,                                   ! Humidity Indicating Conditions at Maximum Dry-Bulb {BasedOnField A3}
  97190,                                  ! Barometric Pressure {Pa}
  13,                                     ! Wind Speed {m/s}
  290,                                    ! Wind Direction {deg}
  0,                                      ! Sky Clearness
  0,                                      ! Rain Indicator
  0,                                      ! Snow Indicator
  21,                                     ! Day of Month
  1,                                      ! Month
  WinterDesignDay,                        ! Day Type
  0,                                      ! Daylight Saving Time Indicator
  Wetbulb,                                ! Humidity Indicating Type
  ,                                       ! Humidity Indicating Day Schedule Name
  DefaultMultipliers,                     ! Dry-Bulb Temperature Range Modifier Type
  ,                                       ! Dry-Bulb Temperature Range Modifier Schedule Name
  ASHRAEClearSky;                         ! Solar Model Indicator

OS:ComponentData,
  {8bea4125-6511-4f2a-af86-06efdf332857}, ! Handle
  Component Data 1,                       ! Name
  {57709933-efbb-4412-be63-294cbbe39a91}, ! UUID
  {1a0394be-8ce2-4aa6-aa50-8f50042aec3b}, ! Version UUID
  1366308352,                             ! Creation Timestamp
  1366308352,                             ! Version Timestamp
  {9b2c6e4c-a400-4030-bff1-3981b61547d0}; ! Name of Object 1

