
OS:Version,
  {2d54077e-d32b-4161-ad51-6ac710951597}, ! Handle
  0.9.3;                                  ! Version Identifier

OS:SizingPeriod:DesignDay,
  {7dc06dca-892e-4404-9af6-a7e0d1866e47}, ! Handle
  WILKES-BARRE Ann Clg 1% Condns DP=>MDB, ! Name
  25.3,                                   ! Maximum Dry-Bulb Temperature {C}
  10.8,                                   ! Daily Dry-Bulb Temperature Range {deltaC}
  21.5,                                   ! Humidity Indicating Conditions at Maximum Dry-Bulb {BasedOnField A3}
  97901,                                  ! Barometric Pressure {Pa}
  4.5,                                    ! Wind Speed {m/s}
  240,                                    ! Wind Direction {deg}
  0,                                      ! Sky Clearness
  0,                                      ! Rain Indicator
  0,                                      ! Snow Indicator
  21,                                     ! Day of Month
  7,                                      ! Month
  SummerDesignDay,                        ! Day Type
  0,                                      ! Daylight Saving Time Indicator
  Dewpoint,                               ! Humidity Indicating Type
  ,                                       ! Humidity Indicating Day Schedule Name
  DefaultMultipliers,                     ! Dry-Bulb Temperature Range Modifier Type
  ,                                       ! Dry-Bulb Temperature Range Modifier Schedule Name
  ASHRAETau,                              ! Solar Model Indicator
  ,                                       ! Beam Solar Day Schedule Name
  ,                                       ! Diffuse Solar Day Schedule Name
  0.477,                                  ! ASHRAE Taub {dimensionless}
  1.945;                                  ! ASHRAE Taud {dimensionless}

OS:ComponentData,
  {b5e815fb-92c4-48f5-abcb-987b201a2d05}, ! Handle
  Component Data 1,                       ! Name
  {ace9cdb9-af46-4ae5-9a2f-83960db93913}, ! UUID
  {9b5f80fd-a579-4f14-8d59-fc523794ede3}, ! Version UUID
  1366310271,                             ! Creation Timestamp
  1366310271,                             ! Version Timestamp
  {7dc06dca-892e-4404-9af6-a7e0d1866e47}; ! Name of Object 1

