
OS:Version,
  {1f9974d1-8a84-449b-b233-06c676751ae6}, ! Handle
  0.9.3;                                  ! Version Identifier

OS:SizingPeriod:DesignDay,
  {4bc885a9-b175-4cf6-8f1b-5b130bf44c13}, ! Handle
  Montgomery Ann Clg .4% Condns DB=>MWB,  ! Name
  35.7,                                   ! Maximum Dry-Bulb Temperature {C}
  10.9,                                   ! Daily Dry-Bulb Temperature Range {deltaC}
  24.7,                                   ! Humidity Indicating Conditions at Maximum Dry-Bulb {BasedOnField A3}
  100582,                                 ! Barometric Pressure {Pa}
  3.1,                                    ! Wind Speed {m/s}
  300,                                    ! Wind Direction {deg}
  0,                                      ! Sky Clearness
  0,                                      ! Rain Indicator
  0,                                      ! Snow Indicator
  21,                                     ! Day of Month
  7,                                      ! Month
  SummerDesignDay,                        ! Day Type
  0,                                      ! Daylight Saving Time Indicator
  Wetbulb,                                ! Humidity Indicating Type
  ,                                       ! Humidity Indicating Day Schedule Name
  DefaultMultipliers,                     ! Dry-Bulb Temperature Range Modifier Type
  ,                                       ! Dry-Bulb Temperature Range Modifier Schedule Name
  ASHRAETau,                              ! Solar Model Indicator
  ,                                       ! Beam Solar Day Schedule Name
  ,                                       ! Diffuse Solar Day Schedule Name
  0.573,                                  ! ASHRAE Taub {dimensionless}
  1.761;                                  ! ASHRAE Taud {dimensionless}

OS:ComponentData,
  {0df486ea-e9f5-4037-a55f-c26ef7e1e8dd}, ! Handle
  Component Data 1,                       ! Name
  {dc75e3c4-ffe8-483f-b5bd-4c3d454d6599}, ! UUID
  {e44b6fc5-197e-4c82-9bc3-5920e4794b47}, ! Version UUID
  1366305875,                             ! Creation Timestamp
  1366305875,                             ! Version Timestamp
  {4bc885a9-b175-4cf6-8f1b-5b130bf44c13}; ! Name of Object 1

