
OS:Version,
  {714da70d-5166-45f9-998a-67b5e4f5a674}, ! Handle
  0.9.3;                                  ! Version Identifier

OS:SizingPeriod:DesignDay,
  {97083e59-c999-43cd-bcb1-dd58dc50f3a5}, ! Handle
  Monroe Co Ann Clg .4% Condns DB=>MWB,   ! Name
  32.5,                                   ! Maximum Dry-Bulb Temperature {C}
  10.8,                                   ! Daily Dry-Bulb Temperature Range {deltaC}
  24.5,                                   ! Humidity Indicating Conditions at Maximum Dry-Bulb {BasedOnField A3}
  98193,                                  ! Barometric Pressure {Pa}
  3.4,                                    ! Wind Speed {m/s}
  240,                                    ! Wind Direction {deg}
  0,                                      ! Sky Clearness
  0,                                      ! Rain Indicator
  0,                                      ! Snow Indicator
  21,                                     ! Day of Month
  7,                                      ! Month
  SummerDesignDay,                        ! Day Type
  0,                                      ! Daylight Saving Time Indicator
  Wetbulb,                                ! Humidity Indicating Type
  ,                                       ! Humidity Indicating Day Schedule Name
  DefaultMultipliers,                     ! Dry-Bulb Temperature Range Modifier Type
  ,                                       ! Dry-Bulb Temperature Range Modifier Schedule Name
  ASHRAETau,                              ! Solar Model Indicator
  ,                                       ! Beam Solar Day Schedule Name
  ,                                       ! Diffuse Solar Day Schedule Name
  0.485,                                  ! ASHRAE Taub {dimensionless}
  1.938;                                  ! ASHRAE Taud {dimensionless}

OS:ComponentData,
  {ea42cf59-2b37-4e43-a1a3-47f4530a936a}, ! Handle
  Component Data 1,                       ! Name
  {e460cd9e-d24e-4b8e-8f17-23848cadef22}, ! UUID
  {b5e52361-ec8d-47bb-811f-8c58fc2421a2}, ! Version UUID
  1366307475,                             ! Creation Timestamp
  1366307475,                             ! Version Timestamp
  {97083e59-c999-43cd-bcb1-dd58dc50f3a5}; ! Name of Object 1

