
OS:Version,
  {e58bc231-5a34-440f-925e-117d70aa6453}, ! Handle
  0.9.3;                                  ! Version Identifier

OS:SizingPeriod:DesignDay,
  {da1e6c70-b8fa-4fbe-9945-89334d04190b}, ! Handle
  Watertown Ann Clg 2% Condns DB=>MWB,    ! Name
  28.8,                                   ! Maximum Dry-Bulb Temperature {C}
  11.3,                                   ! Daily Dry-Bulb Temperature Range {deltaC}
  23.1,                                   ! Humidity Indicating Conditions at Maximum Dry-Bulb {BasedOnField A3}
  98311,                                  ! Barometric Pressure {Pa}
  4.5,                                    ! Wind Speed {m/s}
  220,                                    ! Wind Direction {deg}
  0,                                      ! Sky Clearness
  0,                                      ! Rain Indicator
  0,                                      ! Snow Indicator
  21,                                     ! Day of Month
  7,                                      ! Month
  SummerDesignDay,                        ! Day Type
  0,                                      ! Daylight Saving Time Indicator
  Wetbulb,                                ! Humidity Indicating Type
  ,                                       ! Humidity Indicating Day Schedule Name
  DefaultMultipliers,                     ! Dry-Bulb Temperature Range Modifier Type
  ,                                       ! Dry-Bulb Temperature Range Modifier Schedule Name
  ASHRAETau,                              ! Solar Model Indicator
  ,                                       ! Beam Solar Day Schedule Name
  ,                                       ! Diffuse Solar Day Schedule Name
  0.44,                                   ! ASHRAE Taub {dimensionless}
  2.094;                                  ! ASHRAE Taud {dimensionless}

OS:ComponentData,
  {757ffb31-703a-4d63-af28-7f49c1f3b355}, ! Handle
  Component Data 1,                       ! Name
  {131c89e4-1660-42c4-a0d3-bb956b1d5c6d}, ! UUID
  {c1290462-9a80-4d35-bab6-8c6b6dfc1bd3}, ! Version UUID
  1366311592,                             ! Creation Timestamp
  1366311592,                             ! Version Timestamp
  {da1e6c70-b8fa-4fbe-9945-89334d04190b}; ! Name of Object 1

