
OS:Version,
  {0c138c75-f27b-46db-80fe-c46e2d406714}, ! Handle
  0.9.3;                                  ! Version Identifier

OS:SizingPeriod:DesignDay,
  {cd236dcc-9c78-4cba-9b81-2f581aa67b0c}, ! Handle
  Miami/Int'l Airport Ann Clg .4% Condns DB=>MWB, ! Name
  33.2,                                   ! Maximum Dry-Bulb Temperature {C}
  6.7,                                    ! Daily Dry-Bulb Temperature Range {deltaC}
  25.3,                                   ! Humidity Indicating Conditions at Maximum Dry-Bulb {BasedOnField A3}
  101277,                                 ! Barometric Pressure {Pa}
  4.5,                                    ! Wind Speed {m/s}
  140,                                    ! Wind Direction {deg}
  0,                                      ! Sky Clearness
  0,                                      ! Rain Indicator
  0,                                      ! Snow Indicator
  21,                                     ! Day of Month
  7,                                      ! Month
  SummerDesignDay,                        ! Day Type
  0,                                      ! Daylight Saving Time Indicator
  Wetbulb,                                ! Humidity Indicating Type
  ,                                       ! Humidity Indicating Day Schedule Name
  DefaultMultipliers,                     ! Dry-Bulb Temperature Range Modifier Type
  ,                                       ! Dry-Bulb Temperature Range Modifier Schedule Name
  ASHRAETau,                              ! Solar Model Indicator
  ,                                       ! Beam Solar Day Schedule Name
  ,                                       ! Diffuse Solar Day Schedule Name
  0.528,                                  ! ASHRAE Taub {dimensionless}
  1.905;                                  ! ASHRAE Taud {dimensionless}

