
OS:Version,
  {d7da7883-267f-4f09-a7f7-a941060a462a}, ! Handle
  0.9.3;                                  ! Version Identifier

OS:SizingPeriod:DesignDay,
  {0f610f89-214e-4d50-a80c-95f82d45d05b}, ! Handle
  Memphis Ann Hum_n 99.6% Condns DP=>MCDB, ! Name
  -5.5,                                   ! Maximum Dry-Bulb Temperature {C}
  0,                                      ! Daily Dry-Bulb Temperature Range {deltaC}
  -15.3,                                  ! Humidity Indicating Conditions at Maximum Dry-Bulb {BasedOnField A3}
  100284,                                 ! Barometric Pressure {Pa}
  4.1,                                    ! Wind Speed {m/s}
  0,                                      ! Wind Direction {deg}
  0,                                      ! Sky Clearness
  0,                                      ! Rain Indicator
  0,                                      ! Snow Indicator
  21,                                     ! Day of Month
  1,                                      ! Month
  WinterDesignDay,                        ! Day Type
  0,                                      ! Daylight Saving Time Indicator
  Dewpoint,                               ! Humidity Indicating Type
  ,                                       ! Humidity Indicating Day Schedule Name
  DefaultMultipliers,                     ! Dry-Bulb Temperature Range Modifier Type
  ,                                       ! Dry-Bulb Temperature Range Modifier Schedule Name
  ASHRAEClearSky;                         ! Solar Model Indicator

OS:ComponentData,
  {659daa00-cc4a-42e7-aaea-dc75bb1e7287}, ! Handle
  Component Data 1,                       ! Name
  {542ac13d-1066-44ee-ae36-c760aaeb7ecf}, ! UUID
  {7481d0f5-e517-4cb5-86b7-8f16db5dd917}, ! Version UUID
  1366310524,                             ! Creation Timestamp
  1366310524,                             ! Version Timestamp
  {0f610f89-214e-4d50-a80c-95f82d45d05b}; ! Name of Object 1

