
OS:Version,
  {8d5266c3-3e07-4055-8324-7c460f671ac0}, ! Handle
  0.9.3;                                  ! Version Identifier

OS:SizingPeriod:DesignDay,
  {996c1bf6-6dc1-44ee-8760-cff2282b6a4c}, ! Handle
  Miami Intl Ap Ann Hum_n 99% Condns DP=>MCDB, ! Name
  13.6,                                   ! Maximum Dry-Bulb Temperature {C}
  0,                                      ! Daily Dry-Bulb Temperature Range {deltaC}
  3,                                      ! Humidity Indicating Conditions at Maximum Dry-Bulb {BasedOnField A3}
  101193,                                 ! Barometric Pressure {Pa}
  3.8,                                    ! Wind Speed {m/s}
  340,                                    ! Wind Direction {deg}
  0,                                      ! Sky Clearness
  0,                                      ! Rain Indicator
  0,                                      ! Snow Indicator
  21,                                     ! Day of Month
  1,                                      ! Month
  WinterDesignDay,                        ! Day Type
  0,                                      ! Daylight Saving Time Indicator
  Dewpoint,                               ! Humidity Indicating Type
  ,                                       ! Humidity Indicating Day Schedule Name
  DefaultMultipliers,                     ! Dry-Bulb Temperature Range Modifier Type
  ,                                       ! Dry-Bulb Temperature Range Modifier Schedule Name
  ASHRAEClearSky;                         ! Solar Model Indicator

OS:ComponentData,
  {dd518ace-587b-4c9c-a607-4eeeb7b5a887}, ! Handle
  Component Data 1,                       ! Name
  {a9b4e66f-a490-49c8-9f80-aa3748b36c82}, ! UUID
  {2a7d27cd-86f0-4f8b-aef0-a553612bcf21}, ! Version UUID
  1366306866,                             ! Creation Timestamp
  1366306866,                             ! Version Timestamp
  {996c1bf6-6dc1-44ee-8760-cff2282b6a4c}; ! Name of Object 1

