
OS:Version,
  {4b3abf74-90c6-4268-ab2a-1074596d92a6}, ! Handle
  0.9.3;                                  ! Version Identifier

OS:SizingPeriod:DesignDay,
  {d78e4ed4-9fb6-45c2-a48f-a2b628789ad4}, ! Handle
  Mount Clemens Selfridge Fld Ann Clg .4% Condns DP=>MDB, ! Name
  27.9,                                   ! Maximum Dry-Bulb Temperature {C}
  11,                                     ! Daily Dry-Bulb Temperature Range {deltaC}
  23.2,                                   ! Humidity Indicating Conditions at Maximum Dry-Bulb {BasedOnField A3}
  99217,                                  ! Barometric Pressure {Pa}
  4.4,                                    ! Wind Speed {m/s}
  160,                                    ! Wind Direction {deg}
  0,                                      ! Sky Clearness
  0,                                      ! Rain Indicator
  0,                                      ! Snow Indicator
  21,                                     ! Day of Month
  7,                                      ! Month
  SummerDesignDay,                        ! Day Type
  0,                                      ! Daylight Saving Time Indicator
  Dewpoint,                               ! Humidity Indicating Type
  ,                                       ! Humidity Indicating Day Schedule Name
  DefaultMultipliers,                     ! Dry-Bulb Temperature Range Modifier Type
  ,                                       ! Dry-Bulb Temperature Range Modifier Schedule Name
  ASHRAETau,                              ! Solar Model Indicator
  ,                                       ! Beam Solar Day Schedule Name
  ,                                       ! Diffuse Solar Day Schedule Name
  0.482,                                  ! ASHRAE Taub {dimensionless}
  1.934;                                  ! ASHRAE Taud {dimensionless}

OS:ComponentData,
  {721e74ac-3d3f-498d-ac9f-afde8d65cc82}, ! Handle
  Component Data 1,                       ! Name
  {37d25fdc-983f-4732-8b5f-b35da6ca2536}, ! UUID
  {278ffaf9-5cbd-42ef-be81-fd725a71dc61}, ! Version UUID
  1366308069,                             ! Creation Timestamp
  1366308069,                             ! Version Timestamp
  {d78e4ed4-9fb6-45c2-a48f-a2b628789ad4}; ! Name of Object 1

