
OS:Version,
  {7e85feb3-664a-4c38-8cb6-e1fff02655a1}, ! Handle
  0.9.3;                                  ! Version Identifier

OS:SizingPeriod:DesignDay,
  {34cb0702-22b2-423e-af1d-4855c9c96dae}, ! Handle
  Northern Aroostook Ann Htg Wind 99% Condns WS=>MCDB, ! Name
  -13,                                    ! Maximum Dry-Bulb Temperature {C}
  0,                                      ! Daily Dry-Bulb Temperature Range {deltaC}
  -13,                                    ! Humidity Indicating Conditions at Maximum Dry-Bulb {BasedOnField A3}
  97668,                                  ! Barometric Pressure {Pa}
  11.9,                                   ! Wind Speed {m/s}
  300,                                    ! Wind Direction {deg}
  0,                                      ! Sky Clearness
  0,                                      ! Rain Indicator
  0,                                      ! Snow Indicator
  21,                                     ! Day of Month
  1,                                      ! Month
  WinterDesignDay,                        ! Day Type
  0,                                      ! Daylight Saving Time Indicator
  Wetbulb,                                ! Humidity Indicating Type
  ,                                       ! Humidity Indicating Day Schedule Name
  DefaultMultipliers,                     ! Dry-Bulb Temperature Range Modifier Type
  ,                                       ! Dry-Bulb Temperature Range Modifier Schedule Name
  ASHRAEClearSky;                         ! Solar Model Indicator

