
OS:Version,
  {a4a659e6-426d-4731-9252-c011e764e01d}, ! Handle
  0.9.3;                                  ! Version Identifier

OS:SizingPeriod:DesignDay,
  {c428e01d-b029-4e17-ba38-706af0c4153f}, ! Handle
  Mcalester Municipal Ap Ann Clg 1% Condns Enth=>MDB, ! Name
  32.6,                                   ! Maximum Dry-Bulb Temperature {C}
  11.2,                                   ! Daily Dry-Bulb Temperature Range {deltaC}
  80300,                                  ! Humidity Indicating Conditions at Maximum Dry-Bulb {BasedOnField A3}
  98569,                                  ! Barometric Pressure {Pa}
  3.9,                                    ! Wind Speed {m/s}
  200,                                    ! Wind Direction {deg}
  0,                                      ! Sky Clearness
  0,                                      ! Rain Indicator
  0,                                      ! Snow Indicator
  21,                                     ! Day of Month
  7,                                      ! Month
  SummerDesignDay,                        ! Day Type
  0,                                      ! Daylight Saving Time Indicator
  Enthalpy,                               ! Humidity Indicating Type
  ,                                       ! Humidity Indicating Day Schedule Name
  DefaultMultipliers,                     ! Dry-Bulb Temperature Range Modifier Type
  ,                                       ! Dry-Bulb Temperature Range Modifier Schedule Name
  ASHRAETau,                              ! Solar Model Indicator
  ,                                       ! Beam Solar Day Schedule Name
  ,                                       ! Diffuse Solar Day Schedule Name
  0.459,                                  ! ASHRAE Taub {dimensionless}
  2.091;                                  ! ASHRAE Taud {dimensionless}

OS:ComponentData,
  {c1384e3c-0422-4d43-95a9-a5c96259bdc9}, ! Handle
  Component Data 1,                       ! Name
  {44a61740-91be-4fe9-ae5d-3c409f61c1cc}, ! UUID
  {04f0dbb7-39b8-4380-9f96-fcb9c9904d17}, ! Version UUID
  1366309909,                             ! Creation Timestamp
  1366309909,                             ! Version Timestamp
  {c428e01d-b029-4e17-ba38-706af0c4153f}; ! Name of Object 1

