
OS:Version,
  {73fa5455-80bd-41be-b9fa-146c1e82fb1f}, ! Handle
  0.9.3;                                  ! Version Identifier

OS:SizingPeriod:DesignDay,
  {0c8688e8-4218-4ff4-9a90-0726ce078771}, ! Handle
  Massena Ann Clg .4% Condns WB=>MDB,     ! Name
  28.9,                                   ! Maximum Dry-Bulb Temperature {C}
  11.7,                                   ! Daily Dry-Bulb Temperature Range {deltaC}
  24,                                     ! Humidity Indicating Conditions at Maximum Dry-Bulb {BasedOnField A3}
  100547,                                 ! Barometric Pressure {Pa}
  4.7,                                    ! Wind Speed {m/s}
  240,                                    ! Wind Direction {deg}
  0,                                      ! Sky Clearness
  0,                                      ! Rain Indicator
  0,                                      ! Snow Indicator
  21,                                     ! Day of Month
  7,                                      ! Month
  SummerDesignDay,                        ! Day Type
  0,                                      ! Daylight Saving Time Indicator
  Wetbulb,                                ! Humidity Indicating Type
  ,                                       ! Humidity Indicating Day Schedule Name
  DefaultMultipliers,                     ! Dry-Bulb Temperature Range Modifier Type
  ,                                       ! Dry-Bulb Temperature Range Modifier Schedule Name
  ASHRAETau,                              ! Solar Model Indicator
  ,                                       ! Beam Solar Day Schedule Name
  ,                                       ! Diffuse Solar Day Schedule Name
  0.454,                                  ! ASHRAE Taub {dimensionless}
  2.024;                                  ! ASHRAE Taud {dimensionless}

OS:ComponentData,
  {62658201-a2ec-4a0a-8751-998d76e7bb73}, ! Handle
  Component Data 1,                       ! Name
  {2a6c8a12-745f-43d5-ab75-649e4ca8fb98}, ! UUID
  {ad744ec7-8776-4670-84b3-db826b5342c5}, ! Version UUID
  1366309650,                             ! Creation Timestamp
  1366309650,                             ! Version Timestamp
  {0c8688e8-4218-4ff4-9a90-0726ce078771}; ! Name of Object 1

