
OS:Version,
  {4d11afab-a756-407d-bea3-1a9448bbc056}, ! Handle
  0.9.3;                                  ! Version Identifier

OS:SizingPeriod:DesignDay,
  {af622315-b0df-4e67-8ddf-243f0170fe1c}, ! Handle
  Tampa International Ap Ann Hum_n 99% Condns DP=>MCDB, ! Name
  9.7,                                    ! Maximum Dry-Bulb Temperature {C}
  0,                                      ! Daily Dry-Bulb Temperature Range {deltaC}
  -2,                                     ! Humidity Indicating Conditions at Maximum Dry-Bulb {BasedOnField A3}
  101253,                                 ! Barometric Pressure {Pa}
  2.8,                                    ! Wind Speed {m/s}
  10,                                     ! Wind Direction {deg}
  0,                                      ! Sky Clearness
  0,                                      ! Rain Indicator
  0,                                      ! Snow Indicator
  21,                                     ! Day of Month
  1,                                      ! Month
  WinterDesignDay,                        ! Day Type
  0,                                      ! Daylight Saving Time Indicator
  Dewpoint,                               ! Humidity Indicating Type
  ,                                       ! Humidity Indicating Day Schedule Name
  DefaultMultipliers,                     ! Dry-Bulb Temperature Range Modifier Type
  ,                                       ! Dry-Bulb Temperature Range Modifier Schedule Name
  ASHRAEClearSky;                         ! Solar Model Indicator

OS:ComponentData,
  {35ffdf7c-121e-44e2-9203-ca750a3279ae}, ! Handle
  Component Data 1,                       ! Name
  {0b8257e1-6f12-4dbc-9adf-3a67b9b342b9}, ! UUID
  {4d5b3e2b-345f-4e5d-90b7-53265a4be647}, ! Version UUID
  1366306936,                             ! Creation Timestamp
  1366306936,                             ! Version Timestamp
  {af622315-b0df-4e67-8ddf-243f0170fe1c}; ! Name of Object 1

