
OS:Version,
  {bd191001-4cb0-4538-bff1-aa30bb070823}, ! Handle
  0.9.3;                                  ! Version Identifier

OS:SizingPeriod:DesignDay,
  {20be1ea1-e81e-4483-9ad8-ac86abde07da}, ! Handle
  Phillips Price Co Ann Clg .4% Condns Enth=>MDB, ! Name
  28,                                     ! Maximum Dry-Bulb Temperature {C}
  11.7,                                   ! Daily Dry-Bulb Temperature Range {deltaC}
  73100,                                  ! Humidity Indicating Conditions at Maximum Dry-Bulb {BasedOnField A3}
  96046,                                  ! Barometric Pressure {Pa}
  4.1,                                    ! Wind Speed {m/s}
  200,                                    ! Wind Direction {deg}
  0,                                      ! Sky Clearness
  0,                                      ! Rain Indicator
  0,                                      ! Snow Indicator
  21,                                     ! Day of Month
  7,                                      ! Month
  SummerDesignDay,                        ! Day Type
  0,                                      ! Daylight Saving Time Indicator
  Enthalpy,                               ! Humidity Indicating Type
  ,                                       ! Humidity Indicating Day Schedule Name
  DefaultMultipliers,                     ! Dry-Bulb Temperature Range Modifier Type
  ,                                       ! Dry-Bulb Temperature Range Modifier Schedule Name
  ASHRAETau,                              ! Solar Model Indicator
  ,                                       ! Beam Solar Day Schedule Name
  ,                                       ! Diffuse Solar Day Schedule Name
  0.4,                                    ! ASHRAE Taub {dimensionless}
  2.208;                                  ! ASHRAE Taud {dimensionless}

OS:ComponentData,
  {5b9ebd47-904c-4778-a6c7-6c4f3e1c6e9c}, ! Handle
  Component Data 1,                       ! Name
  {6e914d00-7fcf-403e-ad44-35210d692a88}, ! UUID
  {4a952a88-a862-4745-b8c2-acb58c29b425}, ! Version UUID
  1366311577,                             ! Creation Timestamp
  1366311577,                             ! Version Timestamp
  {20be1ea1-e81e-4483-9ad8-ac86abde07da}; ! Name of Object 1

