
OS:Version,
  {7b7aa8c5-1421-4d47-8c89-fe676e15b5cf}, ! Handle
  0.9.3;                                  ! Version Identifier

OS:SizingPeriod:DesignDay,
  {7fcda6fc-9ad0-4a57-9592-444ec28dc7ac}, ! Handle
  Truckee Tahoe Ann Clg 2% Condns Enth=>MDB, ! Name
  25.6,                                   ! Maximum Dry-Bulb Temperature {C}
  22.7,                                   ! Daily Dry-Bulb Temperature Range {deltaC}
  47500,                                  ! Humidity Indicating Conditions at Maximum Dry-Bulb {BasedOnField A3}
  81509,                                  ! Barometric Pressure {Pa}
  4.3,                                    ! Wind Speed {m/s}
  230,                                    ! Wind Direction {deg}
  0,                                      ! Sky Clearness
  0,                                      ! Rain Indicator
  0,                                      ! Snow Indicator
  21,                                     ! Day of Month
  7,                                      ! Month
  SummerDesignDay,                        ! Day Type
  0,                                      ! Daylight Saving Time Indicator
  Enthalpy,                               ! Humidity Indicating Type
  ,                                       ! Humidity Indicating Day Schedule Name
  DefaultMultipliers,                     ! Dry-Bulb Temperature Range Modifier Type
  ,                                       ! Dry-Bulb Temperature Range Modifier Schedule Name
  ASHRAETau,                              ! Solar Model Indicator
  ,                                       ! Beam Solar Day Schedule Name
  ,                                       ! Diffuse Solar Day Schedule Name
  0.344,                                  ! ASHRAE Taub {dimensionless}
  2.382;                                  ! ASHRAE Taud {dimensionless}

OS:ComponentData,
  {93efc371-6c54-4896-b3ff-7190fb262fd2}, ! Handle
  Component Data 1,                       ! Name
  {63d68653-c7de-43ba-9d08-1ce5f5fde256}, ! UUID
  {2db178dc-c568-4641-88fa-f3d5c8adc24f}, ! Version UUID
  1366306626,                             ! Creation Timestamp
  1366306626,                             ! Version Timestamp
  {7fcda6fc-9ad0-4a57-9592-444ec28dc7ac}; ! Name of Object 1

