
OS:Version,
  {cbbd51ef-0489-4fb7-b9c3-6a0acd251678}, ! Handle
  0.9.3;                                  ! Version Identifier

OS:SizingPeriod:DesignDay,
  {068f3da9-e276-4077-acbb-9ae91a919808}, ! Handle
  Truckee Tahoe Ann Clg 2% Condns Enth=>MDB, ! Name
  25.6,                                   ! Maximum Dry-Bulb Temperature {C}
  22.7,                                   ! Daily Dry-Bulb Temperature Range {deltaC}
  47500,                                  ! Humidity Indicating Conditions at Maximum Dry-Bulb {BasedOnField A3}
  81509,                                  ! Barometric Pressure {Pa}
  4.3,                                    ! Wind Speed {m/s}
  230,                                    ! Wind Direction {deg}
  0,                                      ! Sky Clearness
  0,                                      ! Rain Indicator
  0,                                      ! Snow Indicator
  21,                                     ! Day of Month
  7,                                      ! Month
  SummerDesignDay,                        ! Day Type
  0,                                      ! Daylight Saving Time Indicator
  Enthalpy,                               ! Humidity Indicating Type
  ,                                       ! Humidity Indicating Day Schedule Name
  DefaultMultipliers,                     ! Dry-Bulb Temperature Range Modifier Type
  ,                                       ! Dry-Bulb Temperature Range Modifier Schedule Name
  ASHRAETau,                              ! Solar Model Indicator
  ,                                       ! Beam Solar Day Schedule Name
  ,                                       ! Diffuse Solar Day Schedule Name
  0.344,                                  ! ASHRAE Taub {dimensionless}
  2.382;                                  ! ASHRAE Taud {dimensionless}

