
OS:Version,
  {c35f3876-a04a-459f-bba5-5adacdcd8a01}, ! Handle
  0.9.3;                                  ! Version Identifier

OS:SizingPeriod:DesignDay,
  {79c5e361-cbea-4e4a-8484-208a88aa411c}, ! Handle
  Seattle Boeing Field  Isis Ann Htg Wind 99% Condns WS=>MCDB, ! Name
  7.4,                                    ! Maximum Dry-Bulb Temperature {C}
  0,                                      ! Daily Dry-Bulb Temperature Range {deltaC}
  7.4,                                    ! Humidity Indicating Conditions at Maximum Dry-Bulb {BasedOnField A3}
  101085,                                 ! Barometric Pressure {Pa}
  8.9,                                    ! Wind Speed {m/s}
  150,                                    ! Wind Direction {deg}
  0,                                      ! Sky Clearness
  0,                                      ! Rain Indicator
  0,                                      ! Snow Indicator
  21,                                     ! Day of Month
  12,                                     ! Month
  WinterDesignDay,                        ! Day Type
  0,                                      ! Daylight Saving Time Indicator
  Wetbulb,                                ! Humidity Indicating Type
  ,                                       ! Humidity Indicating Day Schedule Name
  DefaultMultipliers,                     ! Dry-Bulb Temperature Range Modifier Type
  ,                                       ! Dry-Bulb Temperature Range Modifier Schedule Name
  ASHRAEClearSky;                         ! Solar Model Indicator

OS:ComponentData,
  {15d91799-da15-411e-9964-76e4d9b32389}, ! Handle
  Component Data 1,                       ! Name
  {e7ed8e86-1ddb-4f23-a334-9345e30d673e}, ! UUID
  {f6c0a8f3-fcd4-4c40-bbf8-d1014762ef05}, ! Version UUID
  1366311347,                             ! Creation Timestamp
  1366311347,                             ! Version Timestamp
  {79c5e361-cbea-4e4a-8484-208a88aa411c}; ! Name of Object 1

