
OS:Version,
  {ed79d2fc-ede5-410f-a51a-b951594904e7}, ! Handle
  0.9.3;                                  ! Version Identifier

OS:SizingPeriod:DesignDay,
  {acb65197-d74c-4d6b-acd5-79c4e09f001d}, ! Handle
  Syracuse Hancock IntL Arpt Ann Hum_n 99.6% Condns DP=>MCDB, ! Name
  -18.1,                                  ! Maximum Dry-Bulb Temperature {C}
  0,                                      ! Daily Dry-Bulb Temperature Range {deltaC}
  -23.6,                                  ! Humidity Indicating Conditions at Maximum Dry-Bulb {BasedOnField A3}
  99832,                                  ! Barometric Pressure {Pa}
  3,                                      ! Wind Speed {m/s}
  90,                                     ! Wind Direction {deg}
  0,                                      ! Sky Clearness
  0,                                      ! Rain Indicator
  0,                                      ! Snow Indicator
  21,                                     ! Day of Month
  1,                                      ! Month
  WinterDesignDay,                        ! Day Type
  0,                                      ! Daylight Saving Time Indicator
  Dewpoint,                               ! Humidity Indicating Type
  ,                                       ! Humidity Indicating Day Schedule Name
  DefaultMultipliers,                     ! Dry-Bulb Temperature Range Modifier Type
  ,                                       ! Dry-Bulb Temperature Range Modifier Schedule Name
  ASHRAEClearSky;                         ! Solar Model Indicator

OS:ComponentData,
  {bb93f364-e135-47a3-a624-405421cec133}, ! Handle
  Component Data 1,                       ! Name
  {8e7d2624-c8ba-4049-9cc4-9139ec050376}, ! UUID
  {7e57e2f8-c70b-421e-8032-6332a0b945a9}, ! Version UUID
  1366309734,                             ! Creation Timestamp
  1366309734,                             ! Version Timestamp
  {acb65197-d74c-4d6b-acd5-79c4e09f001d}; ! Name of Object 1

