
OS:Version,
  {d7dc5ee5-1cb3-4784-bccf-c4183d5b1496}, ! Handle
  0.9.3;                                  ! Version Identifier

OS:SizingPeriod:DesignDay,
  {53392252-c589-4088-a6bf-404baece8d8b}, ! Handle
  Pullman Moscow Rgnl Ann Htg 99% Condns DB, ! Name
  -9,                                     ! Maximum Dry-Bulb Temperature {C}
  0,                                      ! Daily Dry-Bulb Temperature Range {deltaC}
  -9,                                     ! Humidity Indicating Conditions at Maximum Dry-Bulb {BasedOnField A3}
  92321,                                  ! Barometric Pressure {Pa}
  1.9,                                    ! Wind Speed {m/s}
  70,                                     ! Wind Direction {deg}
  0,                                      ! Sky Clearness
  0,                                      ! Rain Indicator
  0,                                      ! Snow Indicator
  21,                                     ! Day of Month
  12,                                     ! Month
  WinterDesignDay,                        ! Day Type
  0,                                      ! Daylight Saving Time Indicator
  Wetbulb,                                ! Humidity Indicating Type
  ,                                       ! Humidity Indicating Day Schedule Name
  DefaultMultipliers,                     ! Dry-Bulb Temperature Range Modifier Type
  ,                                       ! Dry-Bulb Temperature Range Modifier Schedule Name
  ASHRAEClearSky;                         ! Solar Model Indicator

OS:ComponentData,
  {f2e23fd2-9cd4-4aac-8b91-f39633e15f70}, ! Handle
  Component Data 1,                       ! Name
  {c2ca9083-2326-4358-b92a-8b674b4d7219}, ! UUID
  {3084e251-8c00-4995-9a3b-0f7bfdcf4e14}, ! Version UUID
  1366311329,                             ! Creation Timestamp
  1366311329,                             ! Version Timestamp
  {53392252-c589-4088-a6bf-404baece8d8b}; ! Name of Object 1

