
OS:Version,
  {3270e85f-43cb-4be3-8643-1a4a92e9a56e}, ! Handle
  0.9.3;                                  ! Version Identifier

OS:SizingPeriod:DesignDay,
  {5a99dca1-bd85-4d79-afc9-eea9873f40ca}, ! Handle
  St Paul Island Arpt Ann Clg 2% Condns DP=>MDB, ! Name
  10.4,                                   ! Maximum Dry-Bulb Temperature {C}
  3.1,                                    ! Daily Dry-Bulb Temperature Range {deltaC}
  9.7,                                    ! Humidity Indicating Conditions at Maximum Dry-Bulb {BasedOnField A3}
  101241,                                 ! Barometric Pressure {Pa}
  6,                                      ! Wind Speed {m/s}
  350,                                    ! Wind Direction {deg}
  0,                                      ! Sky Clearness
  0,                                      ! Rain Indicator
  0,                                      ! Snow Indicator
  21,                                     ! Day of Month
  8,                                      ! Month
  SummerDesignDay,                        ! Day Type
  0,                                      ! Daylight Saving Time Indicator
  Dewpoint,                               ! Humidity Indicating Type
  ,                                       ! Humidity Indicating Day Schedule Name
  DefaultMultipliers,                     ! Dry-Bulb Temperature Range Modifier Type
  ,                                       ! Dry-Bulb Temperature Range Modifier Schedule Name
  ASHRAETau,                              ! Solar Model Indicator
  ,                                       ! Beam Solar Day Schedule Name
  ,                                       ! Diffuse Solar Day Schedule Name
  0.39,                                   ! ASHRAE Taub {dimensionless}
  2.227;                                  ! ASHRAE Taud {dimensionless}

