
OS:Version,
  {af5b5b35-1b5c-4972-a2e9-0da0a47c0662}, ! Handle
  0.9.3;                                  ! Version Identifier

OS:SizingPeriod:DesignDay,
  {92fb2527-014c-4808-89bc-60e6b289ef9f}, ! Handle
  Springfield Hartnes Ann Hum_n 99% Condns DP=>MCDB, ! Name
  -16.8,                                  ! Maximum Dry-Bulb Temperature {C}
  0,                                      ! Daily Dry-Bulb Temperature Range {deltaC}
  -23.8,                                  ! Humidity Indicating Conditions at Maximum Dry-Bulb {BasedOnField A3}
  99228,                                  ! Barometric Pressure {Pa}
  1.2,                                    ! Wind Speed {m/s}
  310,                                    ! Wind Direction {deg}
  0,                                      ! Sky Clearness
  0,                                      ! Rain Indicator
  0,                                      ! Snow Indicator
  21,                                     ! Day of Month
  1,                                      ! Month
  WinterDesignDay,                        ! Day Type
  0,                                      ! Daylight Saving Time Indicator
  Dewpoint,                               ! Humidity Indicating Type
  ,                                       ! Humidity Indicating Day Schedule Name
  DefaultMultipliers,                     ! Dry-Bulb Temperature Range Modifier Type
  ,                                       ! Dry-Bulb Temperature Range Modifier Schedule Name
  ASHRAEClearSky;                         ! Solar Model Indicator

OS:ComponentData,
  {953a9f91-9d5d-4144-850f-3fa584c77cef}, ! Handle
  Component Data 1,                       ! Name
  {5d1a4e8d-644e-4452-9a4c-beec73b1dba6}, ! UUID
  {bc71e6d3-559c-404d-b2d1-4fbf3e5b8834}, ! Version UUID
  1366311261,                             ! Creation Timestamp
  1366311261,                             ! Version Timestamp
  {92fb2527-014c-4808-89bc-60e6b289ef9f}; ! Name of Object 1

