
OS:Version,
  {1ce1e948-a543-4837-bf1b-0ee91052a386}, ! Handle
  0.9.3;                                  ! Version Identifier

OS:SizingPeriod:DesignDay,
  {4e0e8431-48bc-435b-8246-f0926dfad784}, ! Handle
  Oceana Nas Ann Htg 99% Condns DB,       ! Name
  -3.7,                                   ! Maximum Dry-Bulb Temperature {C}
  0,                                      ! Daily Dry-Bulb Temperature Range {deltaC}
  -3.7,                                   ! Humidity Indicating Conditions at Maximum Dry-Bulb {BasedOnField A3}
  101229,                                 ! Barometric Pressure {Pa}
  4,                                      ! Wind Speed {m/s}
  0,                                      ! Wind Direction {deg}
  0,                                      ! Sky Clearness
  0,                                      ! Rain Indicator
  0,                                      ! Snow Indicator
  21,                                     ! Day of Month
  1,                                      ! Month
  WinterDesignDay,                        ! Day Type
  0,                                      ! Daylight Saving Time Indicator
  Wetbulb,                                ! Humidity Indicating Type
  ,                                       ! Humidity Indicating Day Schedule Name
  DefaultMultipliers,                     ! Dry-Bulb Temperature Range Modifier Type
  ,                                       ! Dry-Bulb Temperature Range Modifier Schedule Name
  ASHRAEClearSky;                         ! Solar Model Indicator

OS:ComponentData,
  {7aff0647-ddf4-48fe-81d2-4281f2b096a7}, ! Handle
  Component Data 1,                       ! Name
  {9295b0cf-97d9-462a-baec-d2629940ce06}, ! UUID
  {d9412102-c9b4-4565-8096-684112f36818}, ! Version UUID
  1366311144,                             ! Creation Timestamp
  1366311144,                             ! Version Timestamp
  {4e0e8431-48bc-435b-8246-f0926dfad784}; ! Name of Object 1

