
OS:Version,
  {e5ab006f-13a0-402f-a8a2-8c775b50aed3}, ! Handle
  0.9.3;                                  ! Version Identifier

OS:SizingPeriod:DesignDay,
  {1e530e06-6052-465a-9808-6629e02a5787}, ! Handle
  Middletown Harrisburg Intl Ap Ann Clg 2% Condns DP=>MDB, ! Name
  26.6,                                   ! Maximum Dry-Bulb Temperature {C}
  9.6,                                    ! Daily Dry-Bulb Temperature Range {deltaC}
  22.4,                                   ! Humidity Indicating Conditions at Maximum Dry-Bulb {BasedOnField A3}
  100225,                                 ! Barometric Pressure {Pa}
  4.4,                                    ! Wind Speed {m/s}
  300,                                    ! Wind Direction {deg}
  0,                                      ! Sky Clearness
  0,                                      ! Rain Indicator
  0,                                      ! Snow Indicator
  21,                                     ! Day of Month
  7,                                      ! Month
  SummerDesignDay,                        ! Day Type
  0,                                      ! Daylight Saving Time Indicator
  Dewpoint,                               ! Humidity Indicating Type
  ,                                       ! Humidity Indicating Day Schedule Name
  DefaultMultipliers,                     ! Dry-Bulb Temperature Range Modifier Type
  ,                                       ! Dry-Bulb Temperature Range Modifier Schedule Name
  ASHRAETau,                              ! Solar Model Indicator
  ,                                       ! Beam Solar Day Schedule Name
  ,                                       ! Diffuse Solar Day Schedule Name
  0.521,                                  ! ASHRAE Taub {dimensionless}
  1.834;                                  ! ASHRAE Taud {dimensionless}

OS:ComponentData,
  {d3aa6ccf-86b0-42fa-bea0-c70020e139f2}, ! Handle
  Component Data 1,                       ! Name
  {f696ca23-1941-417c-b2f2-715d905944c7}, ! UUID
  {e664ea28-ce46-403a-9eeb-60cc4647dfd8}, ! Version UUID
  1366310198,                             ! Creation Timestamp
  1366310198,                             ! Version Timestamp
  {1e530e06-6052-465a-9808-6629e02a5787}; ! Name of Object 1

