
OS:Version,
  {c0fa4ecf-f893-42cf-a12c-fade418d9fc9}, ! Handle
  0.9.3;                                  ! Version Identifier

OS:SizingPeriod:DesignDay,
  {83fdeeb4-6d37-4ed0-a84f-e23d71177c5e}, ! Handle
  Sterling/Washington Du Ann Clg 2% Condns WB=>MDB, ! Name
  29.1,                                   ! Maximum Dry-Bulb Temperature {C}
  11.4,                                   ! Daily Dry-Bulb Temperature Range {deltaC}
  24.1,                                   ! Humidity Indicating Conditions at Maximum Dry-Bulb {BasedOnField A3}
  100153,                                 ! Barometric Pressure {Pa}
  4,                                      ! Wind Speed {m/s}
  290,                                    ! Wind Direction {deg}
  0,                                      ! Sky Clearness
  0,                                      ! Rain Indicator
  0,                                      ! Snow Indicator
  21,                                     ! Day of Month
  7,                                      ! Month
  SummerDesignDay,                        ! Day Type
  0,                                      ! Daylight Saving Time Indicator
  Wetbulb,                                ! Humidity Indicating Type
  ,                                       ! Humidity Indicating Day Schedule Name
  DefaultMultipliers,                     ! Dry-Bulb Temperature Range Modifier Type
  ,                                       ! Dry-Bulb Temperature Range Modifier Schedule Name
  ASHRAETau,                              ! Solar Model Indicator
  ,                                       ! Beam Solar Day Schedule Name
  ,                                       ! Diffuse Solar Day Schedule Name
  0.544,                                  ! ASHRAE Taub {dimensionless}
  1.787;                                  ! ASHRAE Taud {dimensionless}

OS:ComponentData,
  {79cc10de-a05b-43ed-8848-45b3adea10de}, ! Handle
  Component Data 1,                       ! Name
  {743fd84c-f4a1-4837-9730-a27bac7120ec}, ! UUID
  {8b209eb4-9df7-4e60-803e-b38f40533b05}, ! Version UUID
  1366311213,                             ! Creation Timestamp
  1366311213,                             ! Version Timestamp
  {83fdeeb4-6d37-4ed0-a84f-e23d71177c5e}; ! Name of Object 1

