
OS:Version,
  {4ab900f6-834e-44f5-83a5-203f86a4beb0}, ! Handle
  0.9.3;                                  ! Version Identifier

OS:SizingPeriod:DesignDay,
  {74e82240-909d-4c1d-8131-775136dcc35d}, ! Handle
  TONOPAH Ann Clg .4% Condns WB=>MDB,     ! Name
  30.8,                                   ! Maximum Dry-Bulb Temperature {C}
  18.2,                                   ! Daily Dry-Bulb Temperature Range {deltaC}
  17.4,                                   ! Humidity Indicating Conditions at Maximum Dry-Bulb {BasedOnField A3}
  82980,                                  ! Barometric Pressure {Pa}
  5.1,                                    ! Wind Speed {m/s}
  180,                                    ! Wind Direction {deg}
  0,                                      ! Sky Clearness
  0,                                      ! Rain Indicator
  0,                                      ! Snow Indicator
  21,                                     ! Day of Month
  7,                                      ! Month
  SummerDesignDay,                        ! Day Type
  0,                                      ! Daylight Saving Time Indicator
  Wetbulb,                                ! Humidity Indicating Type
  ,                                       ! Humidity Indicating Day Schedule Name
  DefaultMultipliers,                     ! Dry-Bulb Temperature Range Modifier Type
  ,                                       ! Dry-Bulb Temperature Range Modifier Schedule Name
  ASHRAETau,                              ! Solar Model Indicator
  ,                                       ! Beam Solar Day Schedule Name
  ,                                       ! Diffuse Solar Day Schedule Name
  0.483,                                  ! ASHRAE Taub {dimensionless}
  1.772;                                  ! ASHRAE Taud {dimensionless}

OS:ComponentData,
  {0c8d7219-5e44-469d-8711-63c4f807bb85}, ! Handle
  Component Data 1,                       ! Name
  {f67e94f2-ef25-4a96-b0c9-76e0fdfb95fe}, ! UUID
  {2924f2ed-6230-45ff-902c-4d88b4dd2477}, ! Version UUID
  1366309545,                             ! Creation Timestamp
  1366309545,                             ! Version Timestamp
  {74e82240-909d-4c1d-8131-775136dcc35d}; ! Name of Object 1

