
OS:Version,
  {aaad5faf-00f3-4b11-b5c5-06f933cc2fd2}, ! Handle
  0.9.3;                                  ! Version Identifier

OS:SizingPeriod:DesignDay,
  {3913f4e5-66dc-4326-9b1f-352dc8e9202f}, ! Handle
  Pittsburgh International Ap Ann Clg 1% Condns DB=>MWB, ! Name
  30.4,                                   ! Maximum Dry-Bulb Temperature {C}
  10.3,                                   ! Daily Dry-Bulb Temperature Range {deltaC}
  21.7,                                   ! Humidity Indicating Conditions at Maximum Dry-Bulb {BasedOnField A3}
  97190,                                  ! Barometric Pressure {Pa}
  4.5,                                    ! Wind Speed {m/s}
  220,                                    ! Wind Direction {deg}
  0,                                      ! Sky Clearness
  0,                                      ! Rain Indicator
  0,                                      ! Snow Indicator
  21,                                     ! Day of Month
  7,                                      ! Month
  SummerDesignDay,                        ! Day Type
  0,                                      ! Daylight Saving Time Indicator
  Wetbulb,                                ! Humidity Indicating Type
  ,                                       ! Humidity Indicating Day Schedule Name
  DefaultMultipliers,                     ! Dry-Bulb Temperature Range Modifier Type
  ,                                       ! Dry-Bulb Temperature Range Modifier Schedule Name
  ASHRAETau,                              ! Solar Model Indicator
  ,                                       ! Beam Solar Day Schedule Name
  ,                                       ! Diffuse Solar Day Schedule Name
  0.479,                                  ! ASHRAE Taub {dimensionless}
  1.937;                                  ! ASHRAE Taud {dimensionless}

OS:ComponentData,
  {bd2318c9-a7f5-4f9f-9c21-37ca613bc0fc}, ! Handle
  Component Data 1,                       ! Name
  {fe6caf8d-c910-442b-8cf0-f7e0514551bb}, ! UUID
  {af146919-fdaa-4dc5-a68a-8cf833077808}, ! Version UUID
  1366310246,                             ! Creation Timestamp
  1366310246,                             ! Version Timestamp
  {3913f4e5-66dc-4326-9b1f-352dc8e9202f}; ! Name of Object 1

