
OS:Version,
  {1dd6a598-105f-406c-83c2-a08cb5fe74b3}, ! Handle
  0.9.3;                                  ! Version Identifier

OS:SizingPeriod:DesignDay,
  {c64066ec-d2be-4e85-a690-f33ea99fe37e}, ! Handle
  Storm Lake Ann Htg 99.6% Condns DB,     ! Name
  -22.4,                                  ! Maximum Dry-Bulb Temperature {C}
  0,                                      ! Daily Dry-Bulb Temperature Range {deltaC}
  -22.4,                                  ! Humidity Indicating Conditions at Maximum Dry-Bulb {BasedOnField A3}
  95989,                                  ! Barometric Pressure {Pa}
  5.5,                                    ! Wind Speed {m/s}
  310,                                    ! Wind Direction {deg}
  0,                                      ! Sky Clearness
  0,                                      ! Rain Indicator
  0,                                      ! Snow Indicator
  21,                                     ! Day of Month
  1,                                      ! Month
  WinterDesignDay,                        ! Day Type
  0,                                      ! Daylight Saving Time Indicator
  Wetbulb,                                ! Humidity Indicating Type
  ,                                       ! Humidity Indicating Day Schedule Name
  DefaultMultipliers,                     ! Dry-Bulb Temperature Range Modifier Type
  ,                                       ! Dry-Bulb Temperature Range Modifier Schedule Name
  ASHRAEClearSky;                         ! Solar Model Indicator

OS:ComponentData,
  {f9a80d4a-d168-4ad1-bcaf-2197bceeb4ec}, ! Handle
  Component Data 1,                       ! Name
  {4bba51f6-ab5f-4375-936e-13221b009b8e}, ! UUID
  {8662f7a8-bdf5-4c37-85c7-6c048ab5f0d2}, ! Version UUID
  1366307244,                             ! Creation Timestamp
  1366307244,                             ! Version Timestamp
  {c64066ec-d2be-4e85-a690-f33ea99fe37e}; ! Name of Object 1

