
OS:Version,
  {cc4adc06-d991-452e-949e-3516cea85e2e}, ! Handle
  0.9.3;                                  ! Version Identifier

OS:SizingPeriod:DesignDay,
  {b96f7944-58a6-44b8-aa2b-b4afa103616a}, ! Handle
  Salem Ann Clg 1% Condns Enth=>MDB,      ! Name
  29.3,                                   ! Maximum Dry-Bulb Temperature {C}
  15.4,                                   ! Daily Dry-Bulb Temperature Range {deltaC}
  55200,                                  ! Humidity Indicating Conditions at Maximum Dry-Bulb {BasedOnField A3}
  100594,                                 ! Barometric Pressure {Pa}
  4.3,                                    ! Wind Speed {m/s}
  0,                                      ! Wind Direction {deg}
  0,                                      ! Sky Clearness
  0,                                      ! Rain Indicator
  0,                                      ! Snow Indicator
  21,                                     ! Day of Month
  8,                                      ! Month
  SummerDesignDay,                        ! Day Type
  0,                                      ! Daylight Saving Time Indicator
  Enthalpy,                               ! Humidity Indicating Type
  ,                                       ! Humidity Indicating Day Schedule Name
  DefaultMultipliers,                     ! Dry-Bulb Temperature Range Modifier Type
  ,                                       ! Dry-Bulb Temperature Range Modifier Schedule Name
  ASHRAETau,                              ! Solar Model Indicator
  ,                                       ! Beam Solar Day Schedule Name
  ,                                       ! Diffuse Solar Day Schedule Name
  0.355,                                  ! ASHRAE Taub {dimensionless}
  2.578;                                  ! ASHRAE Taud {dimensionless}

OS:ComponentData,
  {07d5162c-caef-462f-ac56-649d81f841fc}, ! Handle
  Component Data 1,                       ! Name
  {32f2dfe5-eaa8-452c-a601-bb3b12bc28da}, ! UUID
  {b65cd154-4a8f-4d75-873f-bf734c847031}, ! Version UUID
  1366310110,                             ! Creation Timestamp
  1366310110,                             ! Version Timestamp
  {b96f7944-58a6-44b8-aa2b-b4afa103616a}; ! Name of Object 1

