
OS:Version,
  {a9ef21a9-49de-4359-ac60-6959a91a6e87}, ! Handle
  0.9.3;                                  ! Version Identifier

OS:SizingPeriod:DesignDay,
  {f5f56192-8151-47d9-990b-af78e72418ec}, ! Handle
  Riverside Muni Ann Clg .4% Condns WB=>MDB, ! Name
  34.3,                                   ! Maximum Dry-Bulb Temperature {C}
  16.4,                                   ! Daily Dry-Bulb Temperature Range {deltaC}
  23,                                     ! Humidity Indicating Conditions at Maximum Dry-Bulb {BasedOnField A3}
  98287,                                  ! Barometric Pressure {Pa}
  4.7,                                    ! Wind Speed {m/s}
  270,                                    ! Wind Direction {deg}
  0,                                      ! Sky Clearness
  0,                                      ! Rain Indicator
  0,                                      ! Snow Indicator
  21,                                     ! Day of Month
  7,                                      ! Month
  SummerDesignDay,                        ! Day Type
  0,                                      ! Daylight Saving Time Indicator
  Wetbulb,                                ! Humidity Indicating Type
  ,                                       ! Humidity Indicating Day Schedule Name
  DefaultMultipliers,                     ! Dry-Bulb Temperature Range Modifier Type
  ,                                       ! Dry-Bulb Temperature Range Modifier Schedule Name
  ASHRAETau,                              ! Solar Model Indicator
  ,                                       ! Beam Solar Day Schedule Name
  ,                                       ! Diffuse Solar Day Schedule Name
  0.461,                                  ! ASHRAE Taub {dimensionless}
  1.976;                                  ! ASHRAE Taud {dimensionless}

OS:ComponentData,
  {1ff9d74c-ae45-4461-9486-fb91816f93f5}, ! Handle
  Component Data 1,                       ! Name
  {9c44ea7d-07ae-4c2c-b2bc-819cc18f6083}, ! UUID
  {ee64c19c-9a99-4499-89cb-c8db617d107c}, ! Version UUID
  1366306557,                             ! Creation Timestamp
  1366306557,                             ! Version Timestamp
  {f5f56192-8151-47d9-990b-af78e72418ec}; ! Name of Object 1

