
OS:Version,
  {23c3d2a9-4548-430d-88c7-d831b0a74355}, ! Handle
  0.9.3;                                  ! Version Identifier

OS:SizingPeriod:DesignDay,
  {ab286223-adad-4f9d-a2d6-81c08ad8f3f7}, ! Handle
  Saint George  Awos Ann Clg 1% Condns DP=>MDB, ! Name
  25.7,                                   ! Maximum Dry-Bulb Temperature {C}
  14.3,                                   ! Daily Dry-Bulb Temperature Range {deltaC}
  15.2,                                   ! Humidity Indicating Conditions at Maximum Dry-Bulb {BasedOnField A3}
  91014,                                  ! Barometric Pressure {Pa}
  6.6,                                    ! Wind Speed {m/s}
  250,                                    ! Wind Direction {deg}
  0,                                      ! Sky Clearness
  0,                                      ! Rain Indicator
  0,                                      ! Snow Indicator
  21,                                     ! Day of Month
  7,                                      ! Month
  SummerDesignDay,                        ! Day Type
  0,                                      ! Daylight Saving Time Indicator
  Dewpoint,                               ! Humidity Indicating Type
  ,                                       ! Humidity Indicating Day Schedule Name
  DefaultMultipliers,                     ! Dry-Bulb Temperature Range Modifier Type
  ,                                       ! Dry-Bulb Temperature Range Modifier Schedule Name
  ASHRAETau,                              ! Solar Model Indicator
  ,                                       ! Beam Solar Day Schedule Name
  ,                                       ! Diffuse Solar Day Schedule Name
  0.485,                                  ! ASHRAE Taub {dimensionless}
  1.844;                                  ! ASHRAE Taud {dimensionless}

OS:ComponentData,
  {da9f06e0-4773-428b-bf5c-44cf90e4a749}, ! Handle
  Component Data 1,                       ! Name
  {42b66741-79b0-4dd6-ab09-80c8b5c5199a}, ! UUID
  {bd84beb8-0438-4ab3-9d5a-827d8aa0ca63}, ! Version UUID
  1366310984,                             ! Creation Timestamp
  1366310984,                             ! Version Timestamp
  {ab286223-adad-4f9d-a2d6-81c08ad8f3f7}; ! Name of Object 1

