
OS:Version,
  {6aa060fa-5a12-4b1c-b7fe-1e46969e3ff3}, ! Handle
  0.9.3;                                  ! Version Identifier

OS:SizingPeriod:DesignDay,
  {3c6e3579-8dcb-4415-9dc1-d3ad0eb11867}, ! Handle
  Omaha/Eppley Airfield Ann Htg 99% Condns DB, ! Name
  -18.2,                                  ! Maximum Dry-Bulb Temperature {C}
  0,                                      ! Daily Dry-Bulb Temperature Range {deltaC}
  -18.2,                                  ! Humidity Indicating Conditions at Maximum Dry-Bulb {BasedOnField A3}
  97784,                                  ! Barometric Pressure {Pa}
  4.5,                                    ! Wind Speed {m/s}
  340,                                    ! Wind Direction {deg}
  0,                                      ! Sky Clearness
  0,                                      ! Rain Indicator
  0,                                      ! Snow Indicator
  21,                                     ! Day of Month
  1,                                      ! Month
  WinterDesignDay,                        ! Day Type
  0,                                      ! Daylight Saving Time Indicator
  Wetbulb,                                ! Humidity Indicating Type
  ,                                       ! Humidity Indicating Day Schedule Name
  DefaultMultipliers,                     ! Dry-Bulb Temperature Range Modifier Type
  ,                                       ! Dry-Bulb Temperature Range Modifier Schedule Name
  ASHRAEClearSky;                         ! Solar Model Indicator

OS:ComponentData,
  {63c9acd8-62e3-4002-b141-07c860990db1}, ! Handle
  Component Data 1,                       ! Name
  {252cd330-3b6a-4cfd-81f6-1d3d9e1b9bc5}, ! UUID
  {39b5e20c-27f4-40b0-b657-b35ce364fd5c}, ! Version UUID
  1366309168,                             ! Creation Timestamp
  1366309168,                             ! Version Timestamp
  {3c6e3579-8dcb-4415-9dc1-d3ad0eb11867}; ! Name of Object 1

