
OS:Version,
  {a9e3d431-0b2c-4e1d-b445-32ba2d949c8e}, ! Handle
  0.9.3;                                  ! Version Identifier

OS:SizingPeriod:DesignDay,
  {792fd741-b417-499c-83e3-bac6355c0887}, ! Handle
  RENO Ann Clg 1% Condns WB=>MDB,         ! Name
  30.9,                                   ! Maximum Dry-Bulb Temperature {C}
  18.8,                                   ! Daily Dry-Bulb Temperature Range {deltaC}
  16.9,                                   ! Humidity Indicating Conditions at Maximum Dry-Bulb {BasedOnField A3}
  86219,                                  ! Barometric Pressure {Pa}
  4.5,                                    ! Wind Speed {m/s}
  270,                                    ! Wind Direction {deg}
  0,                                      ! Sky Clearness
  0,                                      ! Rain Indicator
  0,                                      ! Snow Indicator
  21,                                     ! Day of Month
  7,                                      ! Month
  SummerDesignDay,                        ! Day Type
  0,                                      ! Daylight Saving Time Indicator
  Wetbulb,                                ! Humidity Indicating Type
  ,                                       ! Humidity Indicating Day Schedule Name
  DefaultMultipliers,                     ! Dry-Bulb Temperature Range Modifier Type
  ,                                       ! Dry-Bulb Temperature Range Modifier Schedule Name
  ASHRAETau,                              ! Solar Model Indicator
  ,                                       ! Beam Solar Day Schedule Name
  ,                                       ! Diffuse Solar Day Schedule Name
  0.398,                                  ! ASHRAE Taub {dimensionless}
  2.123;                                  ! ASHRAE Taud {dimensionless}

OS:ComponentData,
  {147e6f6f-f7ce-4062-9cae-6d52f8b56b50}, ! Handle
  Component Data 1,                       ! Name
  {12468e30-4851-4744-ada5-15594d8366bd}, ! UUID
  {2834bafd-eff4-4071-9899-15db6d34bee8}, ! Version UUID
  1366309541,                             ! Creation Timestamp
  1366309541,                             ! Version Timestamp
  {792fd741-b417-499c-83e3-bac6355c0887}; ! Name of Object 1

