
OS:Version,
  {565e7797-d126-4a57-9441-7e6b7cc40b64}, ! Handle
  0.9.3;                                  ! Version Identifier

OS:SizingPeriod:DesignDay,
  {dc8edb42-ef05-477e-affc-1f00eb92387f}, ! Handle
  WILMINGTON Ann Hum_n 99.6% Condns DP=>MCDB, ! Name
  -9.1,                                   ! Maximum Dry-Bulb Temperature {C}
  0,                                      ! Daily Dry-Bulb Temperature Range {deltaC}
  -19.7,                                  ! Humidity Indicating Conditions at Maximum Dry-Bulb {BasedOnField A3}
  101037,                                 ! Barometric Pressure {Pa}
  4.6,                                    ! Wind Speed {m/s}
  310,                                    ! Wind Direction {deg}
  0,                                      ! Sky Clearness
  0,                                      ! Rain Indicator
  0,                                      ! Snow Indicator
  21,                                     ! Day of Month
  1,                                      ! Month
  WinterDesignDay,                        ! Day Type
  0,                                      ! Daylight Saving Time Indicator
  Dewpoint,                               ! Humidity Indicating Type
  ,                                       ! Humidity Indicating Day Schedule Name
  DefaultMultipliers,                     ! Dry-Bulb Temperature Range Modifier Type
  ,                                       ! Dry-Bulb Temperature Range Modifier Schedule Name
  ASHRAEClearSky;                         ! Solar Model Indicator

OS:ComponentData,
  {01f4e1ae-d7cc-4c2e-849f-4a9dca6c9e87}, ! Handle
  Component Data 1,                       ! Name
  {f463cc94-df5c-491d-bd9c-f2701b9ff9a5}, ! UUID
  {f62d61a9-0466-4331-a360-39292d4ca737}, ! Version UUID
  1366306778,                             ! Creation Timestamp
  1366306778,                             ! Version Timestamp
  {dc8edb42-ef05-477e-affc-1f00eb92387f}; ! Name of Object 1

