
OS:Version,
  {3ddc49a8-c16f-479f-883c-faa62aecbd0f}, ! Handle
  0.9.3;                                  ! Version Identifier

OS:SizingPeriod:DesignDay,
  {b05cc7b7-4d6d-4829-8a8d-253f3e66ba1a}, ! Handle
  Petersburg Ann Clg 1% Condns Enth=>MDB, ! Name
  17.7,                                   ! Maximum Dry-Bulb Temperature {C}
  6.1,                                    ! Daily Dry-Bulb Temperature Range {deltaC}
  40200,                                  ! Humidity Indicating Conditions at Maximum Dry-Bulb {BasedOnField A3}
  100929,                                 ! Barometric Pressure {Pa}
  2.7,                                    ! Wind Speed {m/s}
  70,                                     ! Wind Direction {deg}
  0,                                      ! Sky Clearness
  0,                                      ! Rain Indicator
  0,                                      ! Snow Indicator
  21,                                     ! Day of Month
  7,                                      ! Month
  SummerDesignDay,                        ! Day Type
  0,                                      ! Daylight Saving Time Indicator
  Enthalpy,                               ! Humidity Indicating Type
  ,                                       ! Humidity Indicating Day Schedule Name
  DefaultMultipliers,                     ! Dry-Bulb Temperature Range Modifier Type
  ,                                       ! Dry-Bulb Temperature Range Modifier Schedule Name
  ASHRAETau,                              ! Solar Model Indicator
  ,                                       ! Beam Solar Day Schedule Name
  ,                                       ! Diffuse Solar Day Schedule Name
  0.393,                                  ! ASHRAE Taub {dimensionless}
  2.173;                                  ! ASHRAE Taud {dimensionless}

OS:ComponentData,
  {495961f0-55fe-405a-8969-a05450866945}, ! Handle
  Component Data 1,                       ! Name
  {e589453d-c5e7-4402-9c22-a55a84265b2e}, ! UUID
  {617bc5b2-fba1-4125-80ff-e4707fe823c3}, ! Version UUID
  1366305485,                             ! Creation Timestamp
  1366305485,                             ! Version Timestamp
  {b05cc7b7-4d6d-4829-8a8d-253f3e66ba1a}; ! Name of Object 1

