
OS:Version,
  {c7b95f4b-64e0-48a9-a0b9-c8d732c91c62}, ! Handle
  0.9.3;                                  ! Version Identifier

OS:SizingPeriod:DesignDay,
  {93527b0a-1d94-4a69-b3a8-2b4132420076}, ! Handle
  NORTH_BEND Ann Htg Wind 99.6% Condns WS=>MCDB, ! Name
  12,                                     ! Maximum Dry-Bulb Temperature {C}
  0,                                      ! Daily Dry-Bulb Temperature Range {deltaC}
  12,                                     ! Humidity Indicating Conditions at Maximum Dry-Bulb {BasedOnField A3}
  101265,                                 ! Barometric Pressure {Pa}
  12.8,                                   ! Wind Speed {m/s}
  150,                                    ! Wind Direction {deg}
  0,                                      ! Sky Clearness
  0,                                      ! Rain Indicator
  0,                                      ! Snow Indicator
  21,                                     ! Day of Month
  12,                                     ! Month
  WinterDesignDay,                        ! Day Type
  0,                                      ! Daylight Saving Time Indicator
  Wetbulb,                                ! Humidity Indicating Type
  ,                                       ! Humidity Indicating Day Schedule Name
  DefaultMultipliers,                     ! Dry-Bulb Temperature Range Modifier Type
  ,                                       ! Dry-Bulb Temperature Range Modifier Schedule Name
  ASHRAEClearSky;                         ! Solar Model Indicator

OS:ComponentData,
  {6454b48b-c9cb-4e24-bb0e-a0e8873d44ef}, ! Handle
  Component Data 1,                       ! Name
  {ef2de05b-f8eb-4d07-8aec-68501b6203ed}, ! UUID
  {528833a8-9dd7-40cb-81ff-7b2d212afc1f}, ! Version UUID
  1366310044,                             ! Creation Timestamp
  1366310044,                             ! Version Timestamp
  {93527b0a-1d94-4a69-b3a8-2b4132420076}; ! Name of Object 1

