
OS:Version,
  {6c78ab14-f107-49c2-bd6e-93ac6e6f3b75}, ! Handle
  0.9.3;                                  ! Version Identifier

OS:SizingPeriod:DesignDay,
  {ba567d74-faae-4992-9db4-42e22f5794dd}, ! Handle
  Midland/Odessa Ann Clg 1% Condns WB=>MDB, ! Name
  30.3,                                   ! Maximum Dry-Bulb Temperature {C}
  13.1,                                   ! Daily Dry-Bulb Temperature Range {deltaC}
  22.3,                                   ! Humidity Indicating Conditions at Maximum Dry-Bulb {BasedOnField A3}
  91279,                                  ! Barometric Pressure {Pa}
  5.7,                                    ! Wind Speed {m/s}
  150,                                    ! Wind Direction {deg}
  0,                                      ! Sky Clearness
  0,                                      ! Rain Indicator
  0,                                      ! Snow Indicator
  21,                                     ! Day of Month
  7,                                      ! Month
  SummerDesignDay,                        ! Day Type
  0,                                      ! Daylight Saving Time Indicator
  Wetbulb,                                ! Humidity Indicating Type
  ,                                       ! Humidity Indicating Day Schedule Name
  DefaultMultipliers,                     ! Dry-Bulb Temperature Range Modifier Type
  ,                                       ! Dry-Bulb Temperature Range Modifier Schedule Name
  ASHRAETau,                              ! Solar Model Indicator
  ,                                       ! Beam Solar Day Schedule Name
  ,                                       ! Diffuse Solar Day Schedule Name
  0.443,                                  ! ASHRAE Taub {dimensionless}
  2.032;                                  ! ASHRAE Taud {dimensionless}

OS:ComponentData,
  {66780d27-124c-477f-9996-25d62a63f98d}, ! Handle
  Component Data 1,                       ! Name
  {dc237c95-b1f7-42db-9dc4-3e96b0b0cecc}, ! UUID
  {cda71625-b9a2-4fe6-9f7f-9fd3c3202a0c}, ! Version UUID
  1366310831,                             ! Creation Timestamp
  1366310831,                             ! Version Timestamp
  {ba567d74-faae-4992-9db4-42e22f5794dd}; ! Name of Object 1

