
OS:Version,
  {314dca5f-3798-4480-aa29-066efa72daf1}, ! Handle
  0.9.3;                                  ! Version Identifier

OS:SizingPeriod:DesignDay,
  {10ffa0dc-8292-45ad-8d3a-150349fe2b14}, ! Handle
  Russell Municipal Ap Ann Htg 99% Condns DB, ! Name
  -14.8,                                  ! Maximum Dry-Bulb Temperature {C}
  0,                                      ! Daily Dry-Bulb Temperature Range {deltaC}
  -14.8,                                  ! Humidity Indicating Conditions at Maximum Dry-Bulb {BasedOnField A3}
  94708,                                  ! Barometric Pressure {Pa}
  4.9,                                    ! Wind Speed {m/s}
  0,                                      ! Wind Direction {deg}
  0,                                      ! Sky Clearness
  0,                                      ! Rain Indicator
  0,                                      ! Snow Indicator
  21,                                     ! Day of Month
  1,                                      ! Month
  WinterDesignDay,                        ! Day Type
  0,                                      ! Daylight Saving Time Indicator
  Wetbulb,                                ! Humidity Indicating Type
  ,                                       ! Humidity Indicating Day Schedule Name
  DefaultMultipliers,                     ! Dry-Bulb Temperature Range Modifier Type
  ,                                       ! Dry-Bulb Temperature Range Modifier Schedule Name
  ASHRAEClearSky;                         ! Solar Model Indicator

OS:ComponentData,
  {8773f639-c413-494d-8d26-f32557641276}, ! Handle
  Component Data 1,                       ! Name
  {56b46db1-685e-451b-9d64-1e8cdde23365}, ! UUID
  {ce9dfc02-09a5-4936-8232-b9be770243f2}, ! Version UUID
  1366307571,                             ! Creation Timestamp
  1366307571,                             ! Version Timestamp
  {10ffa0dc-8292-45ad-8d3a-150349fe2b14}; ! Name of Object 1

