
OS:Version,
  {730966df-c9da-444c-96e8-ef01ac670735}, ! Handle
  0.9.3;                                  ! Version Identifier

OS:SizingPeriod:DesignDay,
  {4d132723-d57e-4cf1-b99b-778eb760f0ad}, ! Handle
  Sacramento Metropolitan Ap Ann Hum_n 99.6% Condns DP=>MCDB, ! Name
  9.8,                                    ! Maximum Dry-Bulb Temperature {C}
  0,                                      ! Daily Dry-Bulb Temperature Range {deltaC}
  -6.1,                                   ! Humidity Indicating Conditions at Maximum Dry-Bulb {BasedOnField A3}
  101241,                                 ! Barometric Pressure {Pa}
  1.4,                                    ! Wind Speed {m/s}
  320,                                    ! Wind Direction {deg}
  0,                                      ! Sky Clearness
  0,                                      ! Rain Indicator
  0,                                      ! Snow Indicator
  21,                                     ! Day of Month
  12,                                     ! Month
  WinterDesignDay,                        ! Day Type
  0,                                      ! Daylight Saving Time Indicator
  Dewpoint,                               ! Humidity Indicating Type
  ,                                       ! Humidity Indicating Day Schedule Name
  DefaultMultipliers,                     ! Dry-Bulb Temperature Range Modifier Type
  ,                                       ! Dry-Bulb Temperature Range Modifier Schedule Name
  ASHRAEClearSky;                         ! Solar Model Indicator

OS:ComponentData,
  {27170e15-f3f5-4c81-8a39-7512ed249d56}, ! Handle
  Component Data 1,                       ! Name
  {24f21691-698b-4bac-bba8-a5522a3432e5}, ! UUID
  {7b33c354-7dc5-41e1-afef-57171aa1cdbd}, ! Version UUID
  1366306567,                             ! Creation Timestamp
  1366306567,                             ! Version Timestamp
  {4d132723-d57e-4cf1-b99b-778eb760f0ad}; ! Name of Object 1

