
OS:Version,
  {11625f07-612b-43a5-996a-5779b826ed3f}, ! Handle
  0.9.3;                                  ! Version Identifier

OS:SizingPeriod:DesignDay,
  {78519776-8c72-446d-9e85-557946d8dd79}, ! Handle
  McGrath Ann Clg .4% Condns DB=>MWB,     ! Name
  25.7,                                   ! Maximum Dry-Bulb Temperature {C}
  9.7,                                    ! Daily Dry-Bulb Temperature Range {deltaC}
  15.8,                                   ! Humidity Indicating Conditions at Maximum Dry-Bulb {BasedOnField A3}
  100094,                                 ! Barometric Pressure {Pa}
  3.2,                                    ! Wind Speed {m/s}
  0,                                      ! Wind Direction {deg}
  0,                                      ! Sky Clearness
  0,                                      ! Rain Indicator
  0,                                      ! Snow Indicator
  21,                                     ! Day of Month
  7,                                      ! Month
  SummerDesignDay,                        ! Day Type
  0,                                      ! Daylight Saving Time Indicator
  Wetbulb,                                ! Humidity Indicating Type
  ,                                       ! Humidity Indicating Day Schedule Name
  DefaultMultipliers,                     ! Dry-Bulb Temperature Range Modifier Type
  ,                                       ! Dry-Bulb Temperature Range Modifier Schedule Name
  ASHRAETau,                              ! Solar Model Indicator
  ,                                       ! Beam Solar Day Schedule Name
  ,                                       ! Diffuse Solar Day Schedule Name
  0.388,                                  ! ASHRAE Taub {dimensionless}
  2.208;                                  ! ASHRAE Taud {dimensionless}

OS:ComponentData,
  {9292da17-c023-429c-8821-db78bf2ba0d5}, ! Handle
  Component Data 1,                       ! Name
  {c8e6db50-5053-4536-be0c-567b36af7ca5}, ! UUID
  {c9c7f57b-aba6-4781-aa80-74d120621a1c}, ! Version UUID
  1366305411,                             ! Creation Timestamp
  1366305411,                             ! Version Timestamp
  {78519776-8c72-446d-9e85-557946d8dd79}; ! Name of Object 1

