
OS:Version,
  {90e13204-2775-46da-8326-32d70e217370}, ! Handle
  0.9.3;                                  ! Version Identifier

OS:SizingPeriod:DesignDay,
  {ce03de57-4122-410a-90e2-3b377f76dc4a}, ! Handle
  Naples Municipal Ann Clg 2% Condns WB=>MDB, ! Name
  30,                                     ! Maximum Dry-Bulb Temperature {C}
  7.8,                                    ! Daily Dry-Bulb Temperature Range {deltaC}
  26,                                     ! Humidity Indicating Conditions at Maximum Dry-Bulb {BasedOnField A3}
  101289,                                 ! Barometric Pressure {Pa}
  4.2,                                    ! Wind Speed {m/s}
  50,                                     ! Wind Direction {deg}
  0,                                      ! Sky Clearness
  0,                                      ! Rain Indicator
  0,                                      ! Snow Indicator
  21,                                     ! Day of Month
  7,                                      ! Month
  SummerDesignDay,                        ! Day Type
  0,                                      ! Daylight Saving Time Indicator
  Wetbulb,                                ! Humidity Indicating Type
  ,                                       ! Humidity Indicating Day Schedule Name
  DefaultMultipliers,                     ! Dry-Bulb Temperature Range Modifier Type
  ,                                       ! Dry-Bulb Temperature Range Modifier Schedule Name
  ASHRAETau,                              ! Solar Model Indicator
  ,                                       ! Beam Solar Day Schedule Name
  ,                                       ! Diffuse Solar Day Schedule Name
  0.499,                                  ! ASHRAE Taub {dimensionless}
  1.998;                                  ! ASHRAE Taud {dimensionless}

OS:ComponentData,
  {d670a3f5-8ffd-4621-8e4a-aa307d5d4f1b}, ! Handle
  Component Data 1,                       ! Name
  {de52847a-2e52-42c1-b237-3f431d0990fe}, ! UUID
  {ef1e772c-8539-42e8-bd09-dd0b2f6b31a0}, ! Version UUID
  1366306870,                             ! Creation Timestamp
  1366306870,                             ! Version Timestamp
  {ce03de57-4122-410a-90e2-3b377f76dc4a}; ! Name of Object 1

