
OS:Version,
  {8504b54e-fe6e-445c-99b3-c038d2cbec6d}, ! Handle
  0.9.3;                                  ! Version Identifier

OS:SizingPeriod:DesignDay,
  {4e451d18-77a8-448f-93c0-aca5fe6a0347}, ! Handle
  Oklahoma City Will Rogers Wor Ann Hum_n 99% Condns DP=>MCDB, ! Name
  -6.3,                                   ! Maximum Dry-Bulb Temperature {C}
  0,                                      ! Daily Dry-Bulb Temperature Range {deltaC}
  -14.6,                                  ! Humidity Indicating Conditions at Maximum Dry-Bulb {BasedOnField A3}
  96634,                                  ! Barometric Pressure {Pa}
  6.1,                                    ! Wind Speed {m/s}
  0,                                      ! Wind Direction {deg}
  0,                                      ! Sky Clearness
  0,                                      ! Rain Indicator
  0,                                      ! Snow Indicator
  21,                                     ! Day of Month
  1,                                      ! Month
  WinterDesignDay,                        ! Day Type
  0,                                      ! Daylight Saving Time Indicator
  Dewpoint,                               ! Humidity Indicating Type
  ,                                       ! Humidity Indicating Day Schedule Name
  DefaultMultipliers,                     ! Dry-Bulb Temperature Range Modifier Type
  ,                                       ! Dry-Bulb Temperature Range Modifier Schedule Name
  ASHRAEClearSky;                         ! Solar Model Indicator

