
OS:Version,
  {315597f1-25cb-4ea1-9316-cc48188bf0ef}, ! Handle
  0.9.3;                                  ! Version Identifier

OS:SizingPeriod:DesignDay,
  {375c328c-696f-4f09-b98e-128b3c6b356b}, ! Handle
  Mobile Ann Clg .4% Condns Enth=>MDB,    ! Name
  31.4,                                   ! Maximum Dry-Bulb Temperature {C}
  9.4,                                    ! Daily Dry-Bulb Temperature Range {deltaC}
  83400,                                  ! Humidity Indicating Conditions at Maximum Dry-Bulb {BasedOnField A3}
  100523,                                 ! Barometric Pressure {Pa}
  3.5,                                    ! Wind Speed {m/s}
  350,                                    ! Wind Direction {deg}
  0,                                      ! Sky Clearness
  0,                                      ! Rain Indicator
  0,                                      ! Snow Indicator
  21,                                     ! Day of Month
  7,                                      ! Month
  SummerDesignDay,                        ! Day Type
  0,                                      ! Daylight Saving Time Indicator
  Enthalpy,                               ! Humidity Indicating Type
  ,                                       ! Humidity Indicating Day Schedule Name
  DefaultMultipliers,                     ! Dry-Bulb Temperature Range Modifier Type
  ,                                       ! Dry-Bulb Temperature Range Modifier Schedule Name
  ASHRAETau,                              ! Solar Model Indicator
  ,                                       ! Beam Solar Day Schedule Name
  ,                                       ! Diffuse Solar Day Schedule Name
  0.538,                                  ! ASHRAE Taub {dimensionless}
  1.867;                                  ! ASHRAE Taud {dimensionless}

OS:ComponentData,
  {a2a7dc3b-b6b9-4d6b-a4db-224090f88449}, ! Handle
  Component Data 1,                       ! Name
  {abf7103f-3660-4171-8c57-7b8364da5e3a}, ! UUID
  {0cef5da0-cc09-4a77-a5b3-10bb9f46ff81}, ! Version UUID
  1366305754,                             ! Creation Timestamp
  1366305754,                             ! Version Timestamp
  {375c328c-696f-4f09-b98e-128b3c6b356b}; ! Name of Object 1

