
OS:Version,
  {0eae003f-ea4d-449c-ba7a-c3ffed55baff}, ! Handle
  0.9.3;                                  ! Version Identifier

OS:SizingPeriod:DesignDay,
  {6073c746-18f4-46c5-a7c2-eb105013e797}, ! Handle
  Pensacola Forest Sherman Nas Ann Htg Wind 99.6% Condns WS=>MCDB, ! Name
  8.9,                                    ! Maximum Dry-Bulb Temperature {C}
  0,                                      ! Daily Dry-Bulb Temperature Range {deltaC}
  8.9,                                    ! Humidity Indicating Conditions at Maximum Dry-Bulb {BasedOnField A3}
  101205,                                 ! Barometric Pressure {Pa}
  12.3,                                   ! Wind Speed {m/s}
  0,                                      ! Wind Direction {deg}
  0,                                      ! Sky Clearness
  0,                                      ! Rain Indicator
  0,                                      ! Snow Indicator
  21,                                     ! Day of Month
  1,                                      ! Month
  WinterDesignDay,                        ! Day Type
  0,                                      ! Daylight Saving Time Indicator
  Wetbulb,                                ! Humidity Indicating Type
  ,                                       ! Humidity Indicating Day Schedule Name
  DefaultMultipliers,                     ! Dry-Bulb Temperature Range Modifier Type
  ,                                       ! Dry-Bulb Temperature Range Modifier Schedule Name
  ASHRAEClearSky;                         ! Solar Model Indicator

OS:ComponentData,
  {245b4c45-2036-41c9-b078-84a8d93b522a}, ! Handle
  Component Data 1,                       ! Name
  {d0d8767f-4e84-46d1-b88f-aff3633f3e7b}, ! UUID
  {382f07b1-ba5d-49ed-b04f-f958e4ef4a6e}, ! Version UUID
  1366306901,                             ! Creation Timestamp
  1366306901,                             ! Version Timestamp
  {6073c746-18f4-46c5-a7c2-eb105013e797}; ! Name of Object 1

