
OS:Version,
  {ff12f82d-c050-4257-893f-0dc63694b6dd}, ! Handle
  0.9.3;                                  ! Version Identifier

OS:SizingPeriod:DesignDay,
  {795c0aea-18de-46f5-8fee-2c0d01973a1b}, ! Handle
  SAVANNAH Ann Clg .4% Condns DB=>MWB,    ! Name
  35.3,                                   ! Maximum Dry-Bulb Temperature {C}
  10,                                     ! Daily Dry-Bulb Temperature Range {deltaC}
  25.1,                                   ! Humidity Indicating Conditions at Maximum Dry-Bulb {BasedOnField A3}
  101133,                                 ! Barometric Pressure {Pa}
  3.7,                                    ! Wind Speed {m/s}
  290,                                    ! Wind Direction {deg}
  0,                                      ! Sky Clearness
  0,                                      ! Rain Indicator
  0,                                      ! Snow Indicator
  21,                                     ! Day of Month
  7,                                      ! Month
  SummerDesignDay,                        ! Day Type
  0,                                      ! Daylight Saving Time Indicator
  Wetbulb,                                ! Humidity Indicating Type
  ,                                       ! Humidity Indicating Day Schedule Name
  DefaultMultipliers,                     ! Dry-Bulb Temperature Range Modifier Type
  ,                                       ! Dry-Bulb Temperature Range Modifier Schedule Name
  ASHRAETau,                              ! Solar Model Indicator
  ,                                       ! Beam Solar Day Schedule Name
  ,                                       ! Diffuse Solar Day Schedule Name
  0.558,                                  ! ASHRAE Taub {dimensionless}
  1.811;                                  ! ASHRAE Taud {dimensionless}

OS:ComponentData,
  {f609e0e1-eebe-44a6-bc8d-639103892816}, ! Handle
  Component Data 1,                       ! Name
  {8e1fad64-c096-45d8-8ce6-c0dfe410f49d}, ! UUID
  {f1187d6d-3034-4d6a-b507-bbf82540b179}, ! Version UUID
  1366307049,                             ! Creation Timestamp
  1366307049,                             ! Version Timestamp
  {795c0aea-18de-46f5-8fee-2c0d01973a1b}; ! Name of Object 1

