
OS:Version,
  {2cbe15ca-47c9-4b08-b23c-baab4b377bfe}, ! Handle
  0.9.3;                                  ! Version Identifier

OS:SizingPeriod:DesignDay,
  {9de034ae-49b3-4c64-9426-b92a76162c03}, ! Handle
  Reno Tahoe International Ap Ann Clg 2% Condns DP=>MDB, ! Name
  21.2,                                   ! Maximum Dry-Bulb Temperature {C}
  18.8,                                   ! Daily Dry-Bulb Temperature Range {deltaC}
  10,                                     ! Humidity Indicating Conditions at Maximum Dry-Bulb {BasedOnField A3}
  86208,                                  ! Barometric Pressure {Pa}
  4.5,                                    ! Wind Speed {m/s}
  270,                                    ! Wind Direction {deg}
  0,                                      ! Sky Clearness
  0,                                      ! Rain Indicator
  0,                                      ! Snow Indicator
  21,                                     ! Day of Month
  7,                                      ! Month
  SummerDesignDay,                        ! Day Type
  0,                                      ! Daylight Saving Time Indicator
  Dewpoint,                               ! Humidity Indicating Type
  ,                                       ! Humidity Indicating Day Schedule Name
  DefaultMultipliers,                     ! Dry-Bulb Temperature Range Modifier Type
  ,                                       ! Dry-Bulb Temperature Range Modifier Schedule Name
  ASHRAETau,                              ! Solar Model Indicator
  ,                                       ! Beam Solar Day Schedule Name
  ,                                       ! Diffuse Solar Day Schedule Name
  0.398,                                  ! ASHRAE Taub {dimensionless}
  2.123;                                  ! ASHRAE Taud {dimensionless}

OS:ComponentData,
  {4304f404-0d5b-49fd-8ccc-a035d28bd0b8}, ! Handle
  Component Data 1,                       ! Name
  {5eb5114a-6558-442b-bbb8-344871243675}, ! UUID
  {a2532e27-7f7c-49e5-8776-6e37d30b3503}, ! Version UUID
  1366309537,                             ! Creation Timestamp
  1366309537,                             ! Version Timestamp
  {9de034ae-49b3-4c64-9426-b92a76162c03}; ! Name of Object 1

