
OS:Version,
  {7f87a87f-5444-46e5-951e-75ff821e43f7}, ! Handle
  0.9.3;                                  ! Version Identifier

OS:SizingPeriod:DesignDay,
  {1010e06a-0a19-41ee-8699-ec8e4461e240}, ! Handle
  Patuxent River Nas Ann Htg Wind 99.6% Condns WS=>MCDB, ! Name
  0.3,                                    ! Maximum Dry-Bulb Temperature {C}
  0,                                      ! Daily Dry-Bulb Temperature Range {deltaC}
  0.3,                                    ! Humidity Indicating Conditions at Maximum Dry-Bulb {BasedOnField A3}
  101157,                                 ! Barometric Pressure {Pa}
  12.2,                                   ! Wind Speed {m/s}
  350,                                    ! Wind Direction {deg}
  0,                                      ! Sky Clearness
  0,                                      ! Rain Indicator
  0,                                      ! Snow Indicator
  21,                                     ! Day of Month
  1,                                      ! Month
  WinterDesignDay,                        ! Day Type
  0,                                      ! Daylight Saving Time Indicator
  Wetbulb,                                ! Humidity Indicating Type
  ,                                       ! Humidity Indicating Day Schedule Name
  DefaultMultipliers,                     ! Dry-Bulb Temperature Range Modifier Type
  ,                                       ! Dry-Bulb Temperature Range Modifier Schedule Name
  ASHRAEClearSky;                         ! Solar Model Indicator

OS:ComponentData,
  {c0e6857f-b124-445c-94ec-4e4d3cfd90c9}, ! Handle
  Component Data 1,                       ! Name
  {e31ccf88-3c3e-4549-8077-dd6a3c3f65a5}, ! UUID
  {22d5638f-ac9c-448c-ac61-9b20b1b98f04}, ! Version UUID
  1366307856,                             ! Creation Timestamp
  1366307856,                             ! Version Timestamp
  {1010e06a-0a19-41ee-8699-ec8e4461e240}; ! Name of Object 1

