
OS:Version,
  {8fb80d31-b38e-4fe6-b28a-1f626a3dafde}, ! Handle
  0.9.3;                                  ! Version Identifier

OS:SizingPeriod:DesignDay,
  {613b2c5e-b824-4a89-be70-5ef50058d126}, ! Handle
  Vance Afb Ann Htg Wind 99% Condns WS=>MCDB, ! Name
  4.8,                                    ! Maximum Dry-Bulb Temperature {C}
  0,                                      ! Daily Dry-Bulb Temperature Range {deltaC}
  4.8,                                    ! Humidity Indicating Conditions at Maximum Dry-Bulb {BasedOnField A3}
  96519,                                  ! Barometric Pressure {Pa}
  12.3,                                   ! Wind Speed {m/s}
  10,                                     ! Wind Direction {deg}
  0,                                      ! Sky Clearness
  0,                                      ! Rain Indicator
  0,                                      ! Snow Indicator
  21,                                     ! Day of Month
  1,                                      ! Month
  WinterDesignDay,                        ! Day Type
  0,                                      ! Daylight Saving Time Indicator
  Wetbulb,                                ! Humidity Indicating Type
  ,                                       ! Humidity Indicating Day Schedule Name
  DefaultMultipliers,                     ! Dry-Bulb Temperature Range Modifier Type
  ,                                       ! Dry-Bulb Temperature Range Modifier Schedule Name
  ASHRAEClearSky;                         ! Solar Model Indicator

OS:ComponentData,
  {66f7c3ec-84dc-45ae-aff6-63411c7c0c07}, ! Handle
  Component Data 1,                       ! Name
  {7f60e961-1f30-4241-8440-afc1311aaebf}, ! UUID
  {08ae3cdf-dd22-42da-86d8-e4f4a3842cd2}, ! Version UUID
  1366309962,                             ! Creation Timestamp
  1366309962,                             ! Version Timestamp
  {613b2c5e-b824-4a89-be70-5ef50058d126}; ! Name of Object 1

