
OS:Version,
  {a23a79f0-43ce-4e15-a1ed-6ad4caed5936}, ! Handle
  0.9.3;                                  ! Version Identifier

OS:SizingPeriod:DesignDay,
  {bc62d2d6-c635-4f6b-99a3-e5010653b2fc}, ! Handle
  Nacogdoches  Awos Ann Clg 1% Condns DB=>MWB, ! Name
  35,                                     ! Maximum Dry-Bulb Temperature {C}
  11.4,                                   ! Daily Dry-Bulb Temperature Range {deltaC}
  24.4,                                   ! Humidity Indicating Conditions at Maximum Dry-Bulb {BasedOnField A3}
  100034,                                 ! Barometric Pressure {Pa}
  3,                                      ! Wind Speed {m/s}
  200,                                    ! Wind Direction {deg}
  0,                                      ! Sky Clearness
  0,                                      ! Rain Indicator
  0,                                      ! Snow Indicator
  21,                                     ! Day of Month
  7,                                      ! Month
  SummerDesignDay,                        ! Day Type
  0,                                      ! Daylight Saving Time Indicator
  Wetbulb,                                ! Humidity Indicating Type
  ,                                       ! Humidity Indicating Day Schedule Name
  DefaultMultipliers,                     ! Dry-Bulb Temperature Range Modifier Type
  ,                                       ! Dry-Bulb Temperature Range Modifier Schedule Name
  ASHRAETau,                              ! Solar Model Indicator
  ,                                       ! Beam Solar Day Schedule Name
  ,                                       ! Diffuse Solar Day Schedule Name
  0.488,                                  ! ASHRAE Taub {dimensionless}
  2.012;                                  ! ASHRAE Taud {dimensionless}

OS:ComponentData,
  {c52d2804-4e47-4811-8067-9c06c08e96d9}, ! Handle
  Component Data 1,                       ! Name
  {5630b94f-5ab3-4be5-8499-820952350706}, ! UUID
  {255f7e05-4572-466d-b540-d45dcad4123e}, ! Version UUID
  1366310840,                             ! Creation Timestamp
  1366310840,                             ! Version Timestamp
  {bc62d2d6-c635-4f6b-99a3-e5010653b2fc}; ! Name of Object 1

