
OS:Version,
  {11236cfe-21c4-4ac2-be59-22ea44f05815}, ! Handle
  0.9.3;                                  ! Version Identifier

OS:SizingPeriod:DesignDay,
  {72462852-1ca6-462c-ba12-fbfb59053567}, ! Handle
  Univ Of Illinois Wi  Bondvill Ann Clg 2% Condns Enth=>MDB, ! Name
  28.9,                                   ! Maximum Dry-Bulb Temperature {C}
  10.8,                                   ! Daily Dry-Bulb Temperature Range {deltaC}
  75500,                                  ! Humidity Indicating Conditions at Maximum Dry-Bulb {BasedOnField A3}
  98792,                                  ! Barometric Pressure {Pa}
  5.3,                                    ! Wind Speed {m/s}
  240,                                    ! Wind Direction {deg}
  0,                                      ! Sky Clearness
  0,                                      ! Rain Indicator
  0,                                      ! Snow Indicator
  21,                                     ! Day of Month
  7,                                      ! Month
  SummerDesignDay,                        ! Day Type
  0,                                      ! Daylight Saving Time Indicator
  Enthalpy,                               ! Humidity Indicating Type
  ,                                       ! Humidity Indicating Day Schedule Name
  DefaultMultipliers,                     ! Dry-Bulb Temperature Range Modifier Type
  ,                                       ! Dry-Bulb Temperature Range Modifier Schedule Name
  ASHRAETau,                              ! Solar Model Indicator
  ,                                       ! Beam Solar Day Schedule Name
  ,                                       ! Diffuse Solar Day Schedule Name
  0.458,                                  ! ASHRAE Taub {dimensionless}
  2.034;                                  ! ASHRAE Taud {dimensionless}

OS:ComponentData,
  {158b4318-0974-4f32-8e61-90ae65e75fe9}, ! Handle
  Component Data 1,                       ! Name
  {3b2d25d8-063b-45b6-a1b0-20d2b14368a3}, ! UUID
  {2f1d77c0-95a8-4399-a0f1-a85cba9ec98a}, ! Version UUID
  1366307418,                             ! Creation Timestamp
  1366307418,                             ! Version Timestamp
  {72462852-1ca6-462c-ba12-fbfb59053567}; ! Name of Object 1

