
OS:Version,
  {ec212860-e4dd-4f49-acd7-0b9320c6e9a6}, ! Handle
  0.9.3;                                  ! Version Identifier

OS:SizingPeriod:DesignDay,
  {4f30357f-857c-4e8f-8c62-a0d07c8764db}, ! Handle
  Worland Municipal Ann Clg 2% Condns WB=>MDB, ! Name
  28.9,                                   ! Maximum Dry-Bulb Temperature {C}
  17.8,                                   ! Daily Dry-Bulb Temperature Range {deltaC}
  17.7,                                   ! Humidity Indicating Conditions at Maximum Dry-Bulb {BasedOnField A3}
  86715,                                  ! Barometric Pressure {Pa}
  3.7,                                    ! Wind Speed {m/s}
  180,                                    ! Wind Direction {deg}
  0,                                      ! Sky Clearness
  0,                                      ! Rain Indicator
  0,                                      ! Snow Indicator
  21,                                     ! Day of Month
  7,                                      ! Month
  SummerDesignDay,                        ! Day Type
  0,                                      ! Daylight Saving Time Indicator
  Wetbulb,                                ! Humidity Indicating Type
  ,                                       ! Humidity Indicating Day Schedule Name
  DefaultMultipliers,                     ! Dry-Bulb Temperature Range Modifier Type
  ,                                       ! Dry-Bulb Temperature Range Modifier Schedule Name
  ASHRAETau,                              ! Solar Model Indicator
  ,                                       ! Beam Solar Day Schedule Name
  ,                                       ! Diffuse Solar Day Schedule Name
  0.43,                                   ! ASHRAE Taub {dimensionless}
  1.973;                                  ! ASHRAE Taud {dimensionless}

OS:ComponentData,
  {9afcc3ba-59a2-4fcc-8da3-8c2846eb6c86}, ! Handle
  Component Data 1,                       ! Name
  {1d6e4636-265d-47b1-baaf-8243bfec3047}, ! UUID
  {1442b0e3-8067-4c57-b279-0691221f2c8f}, ! Version UUID
  1366311792,                             ! Creation Timestamp
  1366311792,                             ! Version Timestamp
  {4f30357f-857c-4e8f-8c62-a0d07c8764db}; ! Name of Object 1

