
OS:Version,
  {9e356dd5-3a42-44da-b335-56b119e34b27}, ! Handle
  0.9.3;                                  ! Version Identifier

OS:SizingPeriod:DesignDay,
  {555e8bc3-9303-415e-be83-ecd95309abe8}, ! Handle
  PENDLETON Ann Clg 1% Condns Enth=>MDB,  ! Name
  31.7,                                   ! Maximum Dry-Bulb Temperature {C}
  15.8,                                   ! Daily Dry-Bulb Temperature Range {deltaC}
  53500,                                  ! Humidity Indicating Conditions at Maximum Dry-Bulb {BasedOnField A3}
  95966,                                  ! Barometric Pressure {Pa}
  4.1,                                    ! Wind Speed {m/s}
  300,                                    ! Wind Direction {deg}
  0,                                      ! Sky Clearness
  0,                                      ! Rain Indicator
  0,                                      ! Snow Indicator
  21,                                     ! Day of Month
  7,                                      ! Month
  SummerDesignDay,                        ! Day Type
  0,                                      ! Daylight Saving Time Indicator
  Enthalpy,                               ! Humidity Indicating Type
  ,                                       ! Humidity Indicating Day Schedule Name
  DefaultMultipliers,                     ! Dry-Bulb Temperature Range Modifier Type
  ,                                       ! Dry-Bulb Temperature Range Modifier Schedule Name
  ASHRAETau,                              ! Solar Model Indicator
  ,                                       ! Beam Solar Day Schedule Name
  ,                                       ! Diffuse Solar Day Schedule Name
  0.384,                                  ! ASHRAE Taub {dimensionless}
  2.273;                                  ! ASHRAE Taud {dimensionless}

