
OS:Version,
  {37ca3e2b-9db8-4ff0-ae63-e047ae6dfd7e}, ! Handle
  0.9.3;                                  ! Version Identifier

OS:SizingPeriod:DesignDay,
  {31ddd404-5db6-481e-b894-d2f14500f9c4}, ! Handle
  Martinsville Ann Htg 99% Condns DB,     ! Name
  -7.5,                                   ! Maximum Dry-Bulb Temperature {C}
  0,                                      ! Daily Dry-Bulb Temperature Range {deltaC}
  -7.5,                                   ! Humidity Indicating Conditions at Maximum Dry-Bulb {BasedOnField A3}
  97924,                                  ! Barometric Pressure {Pa}
  0.7,                                    ! Wind Speed {m/s}
  320,                                    ! Wind Direction {deg}
  0,                                      ! Sky Clearness
  0,                                      ! Rain Indicator
  0,                                      ! Snow Indicator
  21,                                     ! Day of Month
  1,                                      ! Month
  WinterDesignDay,                        ! Day Type
  0,                                      ! Daylight Saving Time Indicator
  Wetbulb,                                ! Humidity Indicating Type
  ,                                       ! Humidity Indicating Day Schedule Name
  DefaultMultipliers,                     ! Dry-Bulb Temperature Range Modifier Type
  ,                                       ! Dry-Bulb Temperature Range Modifier Schedule Name
  ASHRAEClearSky;                         ! Solar Model Indicator

OS:ComponentData,
  {b6b47dca-e01c-422d-a7bc-9a14a76084f3}, ! Handle
  Component Data 1,                       ! Name
  {3b5f81ca-b4e0-418f-aa65-11a658052542}, ! UUID
  {bfb4d58f-2d3f-4607-ab06-6fc2a81cbf28}, ! Version UUID
  1366311104,                             ! Creation Timestamp
  1366311104,                             ! Version Timestamp
  {31ddd404-5db6-481e-b894-d2f14500f9c4}; ! Name of Object 1

