
OS:Version,
  {9786f909-f6ef-4c64-a619-cbfd6e9627b8}, ! Handle
  0.9.3;                                  ! Version Identifier

OS:SizingPeriod:DesignDay,
  {13cf842f-c855-453a-988b-ef2ccedd247e}, ! Handle
  New Ulm Muni  Awos Ann Htg Wind 99.6% Condns WS=>MCDB, ! Name
  -11,                                    ! Maximum Dry-Bulb Temperature {C}
  0,                                      ! Daily Dry-Bulb Temperature Range {deltaC}
  -11,                                    ! Humidity Indicating Conditions at Maximum Dry-Bulb {BasedOnField A3}
  97679,                                  ! Barometric Pressure {Pa}
  15.3,                                   ! Wind Speed {m/s}
  280,                                    ! Wind Direction {deg}
  0,                                      ! Sky Clearness
  0,                                      ! Rain Indicator
  0,                                      ! Snow Indicator
  21,                                     ! Day of Month
  1,                                      ! Month
  WinterDesignDay,                        ! Day Type
  0,                                      ! Daylight Saving Time Indicator
  Wetbulb,                                ! Humidity Indicating Type
  ,                                       ! Humidity Indicating Day Schedule Name
  DefaultMultipliers,                     ! Dry-Bulb Temperature Range Modifier Type
  ,                                       ! Dry-Bulb Temperature Range Modifier Schedule Name
  ASHRAEClearSky;                         ! Solar Model Indicator

OS:ComponentData,
  {7d0adc82-2175-400a-b8ed-429443af0d8a}, ! Handle
  Component Data 1,                       ! Name
  {b0d56d95-9818-4a58-8700-3da381126508}, ! UUID
  {04be91fb-d989-42bf-9139-1adbce9c9686}, ! Version UUID
  1366308340,                             ! Creation Timestamp
  1366308340,                             ! Version Timestamp
  {13cf842f-c855-453a-988b-ef2ccedd247e}; ! Name of Object 1

