
OS:Version,
  {285a6be5-f22e-47f0-af54-3ea7b6cdf6e3}, ! Handle
  0.9.3;                                  ! Version Identifier

OS:SizingPeriod:DesignDay,
  {0cf68792-3fad-454e-ade2-7e9c637e6603}, ! Handle
  Sault Ste Marie Sanderson Fie Ann Clg 2% Condns WB=>MDB, ! Name
  23.7,                                   ! Maximum Dry-Bulb Temperature {C}
  11.7,                                   ! Daily Dry-Bulb Temperature Range {deltaC}
  20.2,                                   ! Humidity Indicating Conditions at Maximum Dry-Bulb {BasedOnField A3}
  98722,                                  ! Barometric Pressure {Pa}
  4.2,                                    ! Wind Speed {m/s}
  220,                                    ! Wind Direction {deg}
  0,                                      ! Sky Clearness
  0,                                      ! Rain Indicator
  0,                                      ! Snow Indicator
  21,                                     ! Day of Month
  7,                                      ! Month
  SummerDesignDay,                        ! Day Type
  0,                                      ! Daylight Saving Time Indicator
  Wetbulb,                                ! Humidity Indicating Type
  ,                                       ! Humidity Indicating Day Schedule Name
  DefaultMultipliers,                     ! Dry-Bulb Temperature Range Modifier Type
  ,                                       ! Dry-Bulb Temperature Range Modifier Schedule Name
  ASHRAETau,                              ! Solar Model Indicator
  ,                                       ! Beam Solar Day Schedule Name
  ,                                       ! Diffuse Solar Day Schedule Name
  0.412,                                  ! ASHRAE Taub {dimensionless}
  2.194;                                  ! ASHRAE Taud {dimensionless}

OS:ComponentData,
  {092ad28c-7e59-4196-88d3-ee4b4a2687c1}, ! Handle
  Component Data 1,                       ! Name
  {8a8e532b-1c70-4682-91f2-590b6ee3d2f7}, ! UUID
  {eb9ba152-4b5d-4d97-a6cd-32e02615fd78}, ! Version UUID
  1366308106,                             ! Creation Timestamp
  1366308106,                             ! Version Timestamp
  {0cf68792-3fad-454e-ade2-7e9c637e6603}; ! Name of Object 1

