
OS:Version,
  {8bd90f26-04a3-493c-9c9b-4a14d717da99}, ! Handle
  0.9.3;                                  ! Version Identifier

OS:SizingPeriod:DesignDay,
  {9f1bf050-61de-4d1e-a13d-a5e12f9ae519}, ! Handle
  Worthington  Awos Ann Clg 2% Condns WB=>MDB, ! Name
  26.6,                                   ! Maximum Dry-Bulb Temperature {C}
  9.9,                                    ! Daily Dry-Bulb Temperature Range {deltaC}
  22.4,                                   ! Humidity Indicating Conditions at Maximum Dry-Bulb {BasedOnField A3}
  95690,                                  ! Barometric Pressure {Pa}
  6.7,                                    ! Wind Speed {m/s}
  190,                                    ! Wind Direction {deg}
  0,                                      ! Sky Clearness
  0,                                      ! Rain Indicator
  0,                                      ! Snow Indicator
  21,                                     ! Day of Month
  7,                                      ! Month
  SummerDesignDay,                        ! Day Type
  0,                                      ! Daylight Saving Time Indicator
  Wetbulb,                                ! Humidity Indicating Type
  ,                                       ! Humidity Indicating Day Schedule Name
  DefaultMultipliers,                     ! Dry-Bulb Temperature Range Modifier Type
  ,                                       ! Dry-Bulb Temperature Range Modifier Schedule Name
  ASHRAETau,                              ! Solar Model Indicator
  ,                                       ! Beam Solar Day Schedule Name
  ,                                       ! Diffuse Solar Day Schedule Name
  0.393,                                  ! ASHRAE Taub {dimensionless}
  2.274;                                  ! ASHRAE Taud {dimensionless}

