
OS:Version,
  {ac10be22-daa2-4d6b-95a1-cf1eb974114a}, ! Handle
  0.9.3;                                  ! Version Identifier

OS:SizingPeriod:DesignDay,
  {21b3f17c-8afe-43f6-96e2-ca64e1d30951}, ! Handle
  Worthington  Awos Ann Clg 2% Condns WB=>MDB, ! Name
  26.6,                                   ! Maximum Dry-Bulb Temperature {C}
  9.9,                                    ! Daily Dry-Bulb Temperature Range {deltaC}
  22.4,                                   ! Humidity Indicating Conditions at Maximum Dry-Bulb {BasedOnField A3}
  95690,                                  ! Barometric Pressure {Pa}
  6.7,                                    ! Wind Speed {m/s}
  190,                                    ! Wind Direction {deg}
  0,                                      ! Sky Clearness
  0,                                      ! Rain Indicator
  0,                                      ! Snow Indicator
  21,                                     ! Day of Month
  7,                                      ! Month
  SummerDesignDay,                        ! Day Type
  0,                                      ! Daylight Saving Time Indicator
  Wetbulb,                                ! Humidity Indicating Type
  ,                                       ! Humidity Indicating Day Schedule Name
  DefaultMultipliers,                     ! Dry-Bulb Temperature Range Modifier Type
  ,                                       ! Dry-Bulb Temperature Range Modifier Schedule Name
  ASHRAETau,                              ! Solar Model Indicator
  ,                                       ! Beam Solar Day Schedule Name
  ,                                       ! Diffuse Solar Day Schedule Name
  0.393,                                  ! ASHRAE Taub {dimensionless}
  2.274;                                  ! ASHRAE Taud {dimensionless}

OS:ComponentData,
  {7c366772-9992-4461-a79a-3febe2391345}, ! Handle
  Component Data 1,                       ! Name
  {39cbe9cb-29f2-4c71-bc0b-9ab7eac529ce}, ! UUID
  {a0bc07d4-2fa7-41e5-b60c-648267a91241}, ! Version UUID
  1366308470,                             ! Creation Timestamp
  1366308470,                             ! Version Timestamp
  {21b3f17c-8afe-43f6-96e2-ca64e1d30951}; ! Name of Object 1

