
OS:Version,
  {07f9c416-1af6-4f2c-a79f-105ab63d0ade}, ! Handle
  0.9.3;                                  ! Version Identifier

OS:SizingPeriod:DesignDay,
  {470b4611-b9db-4bfb-ad6d-32ba1c39031c}, ! Handle
  Togiac Village Awos Ann Clg 2% Condns WB=>MDB, ! Name
  15.7,                                   ! Maximum Dry-Bulb Temperature {C}
  6.1,                                    ! Daily Dry-Bulb Temperature Range {deltaC}
  13.1,                                   ! Humidity Indicating Conditions at Maximum Dry-Bulb {BasedOnField A3}
  101253,                                 ! Barometric Pressure {Pa}
  5.4,                                    ! Wind Speed {m/s}
  320,                                    ! Wind Direction {deg}
  0,                                      ! Sky Clearness
  0,                                      ! Rain Indicator
  0,                                      ! Snow Indicator
  21,                                     ! Day of Month
  7,                                      ! Month
  SummerDesignDay,                        ! Day Type
  0,                                      ! Daylight Saving Time Indicator
  Wetbulb,                                ! Humidity Indicating Type
  ,                                       ! Humidity Indicating Day Schedule Name
  DefaultMultipliers,                     ! Dry-Bulb Temperature Range Modifier Type
  ,                                       ! Dry-Bulb Temperature Range Modifier Schedule Name
  ASHRAETau,                              ! Solar Model Indicator
  ,                                       ! Beam Solar Day Schedule Name
  ,                                       ! Diffuse Solar Day Schedule Name
  0.388,                                  ! ASHRAE Taub {dimensionless}
  2.239;                                  ! ASHRAE Taud {dimensionless}

OS:ComponentData,
  {626f9fad-e3ca-453b-84bd-045cf0c73794}, ! Handle
  Component Data 1,                       ! Name
  {68659437-aea9-4040-a598-169cbd5ff3df}, ! UUID
  {97d59cd9-931b-49cf-94b4-01160f647e16}, ! Version UUID
  1366305594,                             ! Creation Timestamp
  1366305594,                             ! Version Timestamp
  {470b4611-b9db-4bfb-ad6d-32ba1c39031c}; ! Name of Object 1

