
OS:Version,
  {c8add9b7-d0a6-41e6-8c1d-f748474f0ada}, ! Handle
  0.9.3;                                  ! Version Identifier

OS:SizingPeriod:DesignDay,
  {d27dc5eb-2433-444e-8945-bed30655f8ad}, ! Handle
  Omaha Eppley Airfield Ann Clg .4% Condns DB=>MWB, ! Name
  35,                                     ! Maximum Dry-Bulb Temperature {C}
  11,                                     ! Daily Dry-Bulb Temperature Range {deltaC}
  24.5,                                   ! Humidity Indicating Conditions at Maximum Dry-Bulb {BasedOnField A3}
  97784,                                  ! Barometric Pressure {Pa}
  6.1,                                    ! Wind Speed {m/s}
  180,                                    ! Wind Direction {deg}
  0,                                      ! Sky Clearness
  0,                                      ! Rain Indicator
  0,                                      ! Snow Indicator
  21,                                     ! Day of Month
  7,                                      ! Month
  SummerDesignDay,                        ! Day Type
  0,                                      ! Daylight Saving Time Indicator
  Wetbulb,                                ! Humidity Indicating Type
  ,                                       ! Humidity Indicating Day Schedule Name
  DefaultMultipliers,                     ! Dry-Bulb Temperature Range Modifier Type
  ,                                       ! Dry-Bulb Temperature Range Modifier Schedule Name
  ASHRAETau,                              ! Solar Model Indicator
  ,                                       ! Beam Solar Day Schedule Name
  ,                                       ! Diffuse Solar Day Schedule Name
  0.421,                                  ! ASHRAE Taub {dimensionless}
  2.196;                                  ! ASHRAE Taud {dimensionless}

OS:ComponentData,
  {9c0c7df4-96e8-4e3f-952e-3ad69d139222}, ! Handle
  Component Data 1,                       ! Name
  {36ef3c5b-dfc5-4c06-a905-e5cde56d875e}, ! UUID
  {c817899b-ede0-4488-90ed-56bca3d99762}, ! Version UUID
  1366309173,                             ! Creation Timestamp
  1366309173,                             ! Version Timestamp
  {d27dc5eb-2433-444e-8945-bed30655f8ad}; ! Name of Object 1

