
OS:Version,
  {999c0cbd-f56b-45a0-8a32-3614354fdcdf}, ! Handle
  0.9.3;                                  ! Version Identifier

OS:SizingPeriod:DesignDay,
  {c620e3be-c8d7-4fb8-9926-823d8fd91343}, ! Handle
  Wilmington International Arpt Ann Clg .4% Condns DB=>MWB, ! Name
  34,                                     ! Maximum Dry-Bulb Temperature {C}
  8.7,                                    ! Daily Dry-Bulb Temperature Range {deltaC}
  25.8,                                   ! Humidity Indicating Conditions at Maximum Dry-Bulb {BasedOnField A3}
  101217,                                 ! Barometric Pressure {Pa}
  4.4,                                    ! Wind Speed {m/s}
  240,                                    ! Wind Direction {deg}
  0,                                      ! Sky Clearness
  0,                                      ! Rain Indicator
  0,                                      ! Snow Indicator
  21,                                     ! Day of Month
  7,                                      ! Month
  SummerDesignDay,                        ! Day Type
  0,                                      ! Daylight Saving Time Indicator
  Wetbulb,                                ! Humidity Indicating Type
  ,                                       ! Humidity Indicating Day Schedule Name
  DefaultMultipliers,                     ! Dry-Bulb Temperature Range Modifier Type
  ,                                       ! Dry-Bulb Temperature Range Modifier Schedule Name
  ASHRAETau,                              ! Solar Model Indicator
  ,                                       ! Beam Solar Day Schedule Name
  ,                                       ! Diffuse Solar Day Schedule Name
  0.584,                                  ! ASHRAE Taub {dimensionless}
  1.738;                                  ! ASHRAE Taud {dimensionless}

