
OS:Version,
  {504f86bb-3fe5-4b8f-a3ad-196beb5f37f1}, ! Handle
  0.9.3;                                  ! Version Identifier

OS:SizingPeriod:DesignDay,
  {97a9028d-82a5-413e-ae83-9061761cab0e}, ! Handle
  Wilmington International Arpt Ann Clg .4% Condns DB=>MWB, ! Name
  34,                                     ! Maximum Dry-Bulb Temperature {C}
  8.7,                                    ! Daily Dry-Bulb Temperature Range {deltaC}
  25.8,                                   ! Humidity Indicating Conditions at Maximum Dry-Bulb {BasedOnField A3}
  101217,                                 ! Barometric Pressure {Pa}
  4.4,                                    ! Wind Speed {m/s}
  240,                                    ! Wind Direction {deg}
  0,                                      ! Sky Clearness
  0,                                      ! Rain Indicator
  0,                                      ! Snow Indicator
  21,                                     ! Day of Month
  7,                                      ! Month
  SummerDesignDay,                        ! Day Type
  0,                                      ! Daylight Saving Time Indicator
  Wetbulb,                                ! Humidity Indicating Type
  ,                                       ! Humidity Indicating Day Schedule Name
  DefaultMultipliers,                     ! Dry-Bulb Temperature Range Modifier Type
  ,                                       ! Dry-Bulb Temperature Range Modifier Schedule Name
  ASHRAETau,                              ! Solar Model Indicator
  ,                                       ! Beam Solar Day Schedule Name
  ,                                       ! Diffuse Solar Day Schedule Name
  0.584,                                  ! ASHRAE Taub {dimensionless}
  1.738;                                  ! ASHRAE Taud {dimensionless}

OS:ComponentData,
  {298c13bd-e342-46fd-b831-32f3b58fa84d}, ! Handle
  Component Data 1,                       ! Name
  {390b051f-858e-4ffb-adcc-0ac0e81321f5}, ! UUID
  {942596bd-ed3c-4e80-8dd0-db6dd549e806}, ! Version UUID
  1366308989,                             ! Creation Timestamp
  1366308989,                             ! Version Timestamp
  {97a9028d-82a5-413e-ae83-9061761cab0e}; ! Name of Object 1

