
OS:Version,
  {ca680d13-7881-442f-b92b-193d324d317c}, ! Handle
  0.9.3;                                  ! Version Identifier

OS:SizingPeriod:DesignDay,
  {3e163001-fee5-4b62-b7c5-77cea90f2b07}, ! Handle
  Provo Muni  Awos Ann Hum_n 99.6% Condns DP=>MCDB, ! Name
  -12.2,                                  ! Maximum Dry-Bulb Temperature {C}
  0,                                      ! Daily Dry-Bulb Temperature Range {deltaC}
  -16.1,                                  ! Humidity Indicating Conditions at Maximum Dry-Bulb {BasedOnField A3}
  85924,                                  ! Barometric Pressure {Pa}
  1.2,                                    ! Wind Speed {m/s}
  140,                                    ! Wind Direction {deg}
  0,                                      ! Sky Clearness
  0,                                      ! Rain Indicator
  0,                                      ! Snow Indicator
  21,                                     ! Day of Month
  12,                                     ! Month
  WinterDesignDay,                        ! Day Type
  0,                                      ! Daylight Saving Time Indicator
  Dewpoint,                               ! Humidity Indicating Type
  ,                                       ! Humidity Indicating Day Schedule Name
  DefaultMultipliers,                     ! Dry-Bulb Temperature Range Modifier Type
  ,                                       ! Dry-Bulb Temperature Range Modifier Schedule Name
  ASHRAEClearSky;                         ! Solar Model Indicator

OS:ComponentData,
  {4adb8552-e0bf-409d-95de-9a1d4a54f87a}, ! Handle
  Component Data 1,                       ! Name
  {b70e7fb3-582b-4605-9746-c73f6b012091}, ! UUID
  {1d5a828e-d79c-46c9-8f65-84f6a89b6714}, ! Version UUID
  1366310977,                             ! Creation Timestamp
  1366310977,                             ! Version Timestamp
  {3e163001-fee5-4b62-b7c5-77cea90f2b07}; ! Name of Object 1

