
OS:Version,
  {0ecc01cd-562b-43fb-b9c5-9cd78ad52aec}, ! Handle
  0.9.3;                                  ! Version Identifier

OS:SizingPeriod:DesignDay,
  {eb3577c2-4ec9-4ee3-b84e-398dbd3f283f}, ! Handle
  Pullman Moscow Rgnl Ann Clg .4% Condns DP=>MDB, ! Name
  25.5,                                   ! Maximum Dry-Bulb Temperature {C}
  16.9,                                   ! Daily Dry-Bulb Temperature Range {deltaC}
  16.9,                                   ! Humidity Indicating Conditions at Maximum Dry-Bulb {BasedOnField A3}
  92321,                                  ! Barometric Pressure {Pa}
  2.2,                                    ! Wind Speed {m/s}
  260,                                    ! Wind Direction {deg}
  0,                                      ! Sky Clearness
  0,                                      ! Rain Indicator
  0,                                      ! Snow Indicator
  21,                                     ! Day of Month
  7,                                      ! Month
  SummerDesignDay,                        ! Day Type
  0,                                      ! Daylight Saving Time Indicator
  Dewpoint,                               ! Humidity Indicating Type
  ,                                       ! Humidity Indicating Day Schedule Name
  DefaultMultipliers,                     ! Dry-Bulb Temperature Range Modifier Type
  ,                                       ! Dry-Bulb Temperature Range Modifier Schedule Name
  ASHRAETau,                              ! Solar Model Indicator
  ,                                       ! Beam Solar Day Schedule Name
  ,                                       ! Diffuse Solar Day Schedule Name
  0.365,                                  ! ASHRAE Taub {dimensionless}
  2.328;                                  ! ASHRAE Taud {dimensionless}

OS:ComponentData,
  {2e053b1d-28e1-43af-a827-dbf64eb3e6d2}, ! Handle
  Component Data 1,                       ! Name
  {cbb39f6d-0e40-49b2-a943-6de4968b341c}, ! UUID
  {b96fb596-9ee4-4e40-82ed-366d9fddc6e2}, ! Version UUID
  1366311332,                             ! Creation Timestamp
  1366311332,                             ! Version Timestamp
  {eb3577c2-4ec9-4ee3-b84e-398dbd3f283f}; ! Name of Object 1

