
OS:Version,
  {b0137d54-5a45-43fd-bea0-907ee0d91ef4}, ! Handle
  0.9.3;                                  ! Version Identifier

OS:SizingPeriod:DesignDay,
  {060fe837-3927-4d1a-9274-981850d2e18a}, ! Handle
  OKLAHOMA_CITY Ann Clg 1% Condns WB=>MDB, ! Name
  32.2,                                   ! Maximum Dry-Bulb Temperature {C}
  11.7,                                   ! Daily Dry-Bulb Temperature Range {deltaC}
  24.9,                                   ! Humidity Indicating Conditions at Maximum Dry-Bulb {BasedOnField A3}
  96646,                                  ! Barometric Pressure {Pa}
  5.5,                                    ! Wind Speed {m/s}
  170,                                    ! Wind Direction {deg}
  0,                                      ! Sky Clearness
  0,                                      ! Rain Indicator
  0,                                      ! Snow Indicator
  21,                                     ! Day of Month
  7,                                      ! Month
  SummerDesignDay,                        ! Day Type
  0,                                      ! Daylight Saving Time Indicator
  Wetbulb,                                ! Humidity Indicating Type
  ,                                       ! Humidity Indicating Day Schedule Name
  DefaultMultipliers,                     ! Dry-Bulb Temperature Range Modifier Type
  ,                                       ! Dry-Bulb Temperature Range Modifier Schedule Name
  ASHRAETau,                              ! Solar Model Indicator
  ,                                       ! Beam Solar Day Schedule Name
  ,                                       ! Diffuse Solar Day Schedule Name
  0.426,                                  ! ASHRAE Taub {dimensionless}
  2.214;                                  ! ASHRAE Taud {dimensionless}

OS:ComponentData,
  {3eb0f5ae-ff50-4c30-a1e6-0b654c50fce1}, ! Handle
  Component Data 1,                       ! Name
  {eca4c825-0d00-450a-98ad-120a61115c35}, ! UUID
  {cb851cc2-b7a5-4573-ba42-57cdac464435}, ! Version UUID
  1366309932,                             ! Creation Timestamp
  1366309932,                             ! Version Timestamp
  {060fe837-3927-4d1a-9274-981850d2e18a}; ! Name of Object 1

