
OS:Version,
  {86d7bb52-774a-4fc2-8a69-5315dafa8cb5}, ! Handle
  0.9.3;                                  ! Version Identifier

OS:SizingPeriod:DesignDay,
  {cc19d41a-dabc-427b-aaf4-e7ae1fd00817}, ! Handle
  Washington Ann Clg 1% Condns DB=>MWB,   ! Name
  32.7,                                   ! Maximum Dry-Bulb Temperature {C}
  10.8,                                   ! Daily Dry-Bulb Temperature Range {deltaC}
  25.6,                                   ! Humidity Indicating Conditions at Maximum Dry-Bulb {BasedOnField A3}
  98592,                                  ! Barometric Pressure {Pa}
  4.4,                                    ! Wind Speed {m/s}
  200,                                    ! Wind Direction {deg}
  0,                                      ! Sky Clearness
  0,                                      ! Rain Indicator
  0,                                      ! Snow Indicator
  21,                                     ! Day of Month
  7,                                      ! Month
  SummerDesignDay,                        ! Day Type
  0,                                      ! Daylight Saving Time Indicator
  Wetbulb,                                ! Humidity Indicating Type
  ,                                       ! Humidity Indicating Day Schedule Name
  DefaultMultipliers,                     ! Dry-Bulb Temperature Range Modifier Type
  ,                                       ! Dry-Bulb Temperature Range Modifier Schedule Name
  ASHRAETau,                              ! Solar Model Indicator
  ,                                       ! Beam Solar Day Schedule Name
  ,                                       ! Diffuse Solar Day Schedule Name
  0.446,                                  ! ASHRAE Taub {dimensionless}
  2.081;                                  ! ASHRAE Taud {dimensionless}

OS:ComponentData,
  {813ab519-34e2-4f48-a5bc-df3fe38164df}, ! Handle
  Component Data 1,                       ! Name
  {6258f2df-df70-4849-838b-c593a7854496}, ! UUID
  {170efa9b-40c6-441b-be70-de3ed12a61de}, ! Version UUID
  1366307248,                             ! Creation Timestamp
  1366307248,                             ! Version Timestamp
  {cc19d41a-dabc-427b-aaf4-e7ae1fd00817}; ! Name of Object 1

