
OS:Version,
  {b2fe820d-22d7-460a-a414-d170d7a2aecc}, ! Handle
  0.9.3;                                  ! Version Identifier

OS:SizingPeriod:DesignDay,
  {7edcecb4-d0a7-4cd1-a969-be038ef29a33}, ! Handle
  Vero Beach Municipal Arpt Ann Htg Wind 99.6% Condns WS=>MCDB, ! Name
  18.4,                                   ! Maximum Dry-Bulb Temperature {C}
  0,                                      ! Daily Dry-Bulb Temperature Range {deltaC}
  18.4,                                   ! Humidity Indicating Conditions at Maximum Dry-Bulb {BasedOnField A3}
  101241,                                 ! Barometric Pressure {Pa}
  10.7,                                   ! Wind Speed {m/s}
  320,                                    ! Wind Direction {deg}
  0,                                      ! Sky Clearness
  0,                                      ! Rain Indicator
  0,                                      ! Snow Indicator
  21,                                     ! Day of Month
  1,                                      ! Month
  WinterDesignDay,                        ! Day Type
  0,                                      ! Daylight Saving Time Indicator
  Wetbulb,                                ! Humidity Indicating Type
  ,                                       ! Humidity Indicating Day Schedule Name
  DefaultMultipliers,                     ! Dry-Bulb Temperature Range Modifier Type
  ,                                       ! Dry-Bulb Temperature Range Modifier Schedule Name
  ASHRAEClearSky;                         ! Solar Model Indicator

OS:ComponentData,
  {09b45022-5c80-408f-bbd7-0db48392f627}, ! Handle
  Component Data 1,                       ! Name
  {1181f839-b198-48a3-bf8f-74119bb30f29}, ! UUID
  {ccd60b58-83a8-4733-9e39-76ff586f0f4b}, ! Version UUID
  1366306945,                             ! Creation Timestamp
  1366306945,                             ! Version Timestamp
  {7edcecb4-d0a7-4cd1-a969-be038ef29a33}; ! Name of Object 1

