
OS:Version,
  {b28b334a-ce81-4dbb-8a8a-003494975caa}, ! Handle
  0.9.3;                                  ! Version Identifier

OS:SizingPeriod:DesignDay,
  {ac0ee4af-aa12-4f45-a761-07ff74f04690}, ! Handle
  Phillips Price Co Ann Hum_n 99.6% Condns DP=>MCDB, ! Name
  -28,                                    ! Maximum Dry-Bulb Temperature {C}
  0,                                      ! Daily Dry-Bulb Temperature Range {deltaC}
  -35.4,                                  ! Humidity Indicating Conditions at Maximum Dry-Bulb {BasedOnField A3}
  96046,                                  ! Barometric Pressure {Pa}
  0.8,                                    ! Wind Speed {m/s}
  280,                                    ! Wind Direction {deg}
  0,                                      ! Sky Clearness
  0,                                      ! Rain Indicator
  0,                                      ! Snow Indicator
  21,                                     ! Day of Month
  1,                                      ! Month
  WinterDesignDay,                        ! Day Type
  0,                                      ! Daylight Saving Time Indicator
  Dewpoint,                               ! Humidity Indicating Type
  ,                                       ! Humidity Indicating Day Schedule Name
  DefaultMultipliers,                     ! Dry-Bulb Temperature Range Modifier Type
  ,                                       ! Dry-Bulb Temperature Range Modifier Schedule Name
  ASHRAEClearSky;                         ! Solar Model Indicator

OS:ComponentData,
  {2d8d945e-4d42-439b-8ee0-7c074fb4eff2}, ! Handle
  Component Data 1,                       ! Name
  {b303f9f8-aa6c-4968-a8f5-84c673ecd236}, ! UUID
  {c0aed151-2629-474f-ae6f-2e5ae892eb50}, ! Version UUID
  1366311575,                             ! Creation Timestamp
  1366311575,                             ! Version Timestamp
  {ac0ee4af-aa12-4f45-a761-07ff74f04690}; ! Name of Object 1

