
OS:Version,
  {4108af0b-0838-43de-b5f1-9859500504c5}, ! Handle
  0.9.3;                                  ! Version Identifier

OS:SizingPeriod:DesignDay,
  {72398775-f524-4e34-a20f-fe8a390f9367}, ! Handle
  Whiteman Afb Ann Clg 2% Condns Enth=>MDB, ! Name
  31.1,                                   ! Maximum Dry-Bulb Temperature {C}
  10.6,                                   ! Daily Dry-Bulb Temperature Range {deltaC}
  76600,                                  ! Humidity Indicating Conditions at Maximum Dry-Bulb {BasedOnField A3}
  98299,                                  ! Barometric Pressure {Pa}
  4.4,                                    ! Wind Speed {m/s}
  200,                                    ! Wind Direction {deg}
  0,                                      ! Sky Clearness
  0,                                      ! Rain Indicator
  0,                                      ! Snow Indicator
  21,                                     ! Day of Month
  7,                                      ! Month
  SummerDesignDay,                        ! Day Type
  0,                                      ! Daylight Saving Time Indicator
  Enthalpy,                               ! Humidity Indicating Type
  ,                                       ! Humidity Indicating Day Schedule Name
  DefaultMultipliers,                     ! Dry-Bulb Temperature Range Modifier Type
  ,                                       ! Dry-Bulb Temperature Range Modifier Schedule Name
  ASHRAETau,                              ! Solar Model Indicator
  ,                                       ! Beam Solar Day Schedule Name
  ,                                       ! Diffuse Solar Day Schedule Name
  0.447,                                  ! ASHRAE Taub {dimensionless}
  2.107;                                  ! ASHRAE Taud {dimensionless}

OS:ComponentData,
  {428df912-4a03-488b-964f-eea3733d7e8e}, ! Handle
  Component Data 1,                       ! Name
  {afbe1347-a828-47ac-beb6-969dd3bdfb92}, ! UUID
  {2ad24049-c178-4027-8c9a-9fed7dda0528}, ! Version UUID
  1366308603,                             ! Creation Timestamp
  1366308603,                             ! Version Timestamp
  {72398775-f524-4e34-a20f-fe8a390f9367}; ! Name of Object 1

