
OS:Version,
  {00545340-2a96-4883-a2f3-ff2288bbe75b}, ! Handle
  0.9.3;                                  ! Version Identifier

OS:SizingPeriod:DesignDay,
  {c70e4e56-8992-419d-93c7-c956f549f1eb}, ! Handle
  Topeka Municipal Ap Ann Htg 99.6% Condns DB, ! Name
  -17.4,                                  ! Maximum Dry-Bulb Temperature {C}
  0,                                      ! Daily Dry-Bulb Temperature Range {deltaC}
  -17.4,                                  ! Humidity Indicating Conditions at Maximum Dry-Bulb {BasedOnField A3}
  98135,                                  ! Barometric Pressure {Pa}
  3.6,                                    ! Wind Speed {m/s}
  320,                                    ! Wind Direction {deg}
  0,                                      ! Sky Clearness
  0,                                      ! Rain Indicator
  0,                                      ! Snow Indicator
  21,                                     ! Day of Month
  1,                                      ! Month
  WinterDesignDay,                        ! Day Type
  0,                                      ! Daylight Saving Time Indicator
  Wetbulb,                                ! Humidity Indicating Type
  ,                                       ! Humidity Indicating Day Schedule Name
  DefaultMultipliers,                     ! Dry-Bulb Temperature Range Modifier Type
  ,                                       ! Dry-Bulb Temperature Range Modifier Schedule Name
  ASHRAEClearSky;                         ! Solar Model Indicator

OS:ComponentData,
  {df0dab4a-68d4-4899-ac99-92f67e32274c}, ! Handle
  Component Data 1,                       ! Name
  {fdcfb414-5815-4ad4-b5e3-225fb211bfd3}, ! UUID
  {fa8aff3d-d869-434d-ad90-1ca96ea3f47c}, ! Version UUID
  1366307586,                             ! Creation Timestamp
  1366307586,                             ! Version Timestamp
  {c70e4e56-8992-419d-93c7-c956f549f1eb}; ! Name of Object 1

