
OS:Version,
  {73970a0a-5958-45c1-8e7c-45aad3b83650}, ! Handle
  0.9.3;                                  ! Version Identifier

OS:SizingPeriod:DesignDay,
  {07f2a5da-2682-4e79-932c-cee693909c9c}, ! Handle
  NORFOLK Ann Clg .4% Condns WB=>MDB,     ! Name
  31.4,                                   ! Maximum Dry-Bulb Temperature {C}
  8.1,                                    ! Daily Dry-Bulb Temperature Range {deltaC}
  26.1,                                   ! Humidity Indicating Conditions at Maximum Dry-Bulb {BasedOnField A3}
  101217,                                 ! Barometric Pressure {Pa}
  5,                                      ! Wind Speed {m/s}
  240,                                    ! Wind Direction {deg}
  0,                                      ! Sky Clearness
  0,                                      ! Rain Indicator
  0,                                      ! Snow Indicator
  21,                                     ! Day of Month
  7,                                      ! Month
  SummerDesignDay,                        ! Day Type
  0,                                      ! Daylight Saving Time Indicator
  Wetbulb,                                ! Humidity Indicating Type
  ,                                       ! Humidity Indicating Day Schedule Name
  DefaultMultipliers,                     ! Dry-Bulb Temperature Range Modifier Type
  ,                                       ! Dry-Bulb Temperature Range Modifier Schedule Name
  ASHRAETau,                              ! Solar Model Indicator
  ,                                       ! Beam Solar Day Schedule Name
  ,                                       ! Diffuse Solar Day Schedule Name
  0.59,                                   ! ASHRAE Taub {dimensionless}
  1.703;                                  ! ASHRAE Taud {dimensionless}

OS:ComponentData,
  {f8eb2f64-fc40-46bc-b900-f980d9fa027f}, ! Handle
  Component Data 1,                       ! Name
  {493205d2-1e76-4156-8ede-f1fb97123950}, ! UUID
  {22d3a01c-b2bc-4938-a64a-d744de790b8c}, ! Version UUID
  1366311123,                             ! Creation Timestamp
  1366311123,                             ! Version Timestamp
  {07f2a5da-2682-4e79-932c-cee693909c9c}; ! Name of Object 1

