
OS:Version,
  {b55b81ec-8ef6-4c48-b4c3-0835793e8a8a}, ! Handle
  0.9.3;                                  ! Version Identifier

OS:SizingPeriod:DesignDay,
  {a3e0858a-db87-476f-b713-c4fbf66e0bf8}, ! Handle
  SPRINGFIELD Ann Htg Wind 99.6% Condns WS=>MCDB, ! Name
  0.1,                                    ! Maximum Dry-Bulb Temperature {C}
  0,                                      ! Daily Dry-Bulb Temperature Range {deltaC}
  0.1,                                    ! Humidity Indicating Conditions at Maximum Dry-Bulb {BasedOnField A3}
  99099,                                  ! Barometric Pressure {Pa}
  12.4,                                   ! Wind Speed {m/s}
  270,                                    ! Wind Direction {deg}
  0,                                      ! Sky Clearness
  0,                                      ! Rain Indicator
  0,                                      ! Snow Indicator
  21,                                     ! Day of Month
  1,                                      ! Month
  WinterDesignDay,                        ! Day Type
  0,                                      ! Daylight Saving Time Indicator
  Wetbulb,                                ! Humidity Indicating Type
  ,                                       ! Humidity Indicating Day Schedule Name
  DefaultMultipliers,                     ! Dry-Bulb Temperature Range Modifier Type
  ,                                       ! Dry-Bulb Temperature Range Modifier Schedule Name
  ASHRAEClearSky;                         ! Solar Model Indicator

OS:ComponentData,
  {ea7a0c2e-7f86-468a-b06e-73873d72c34c}, ! Handle
  Component Data 1,                       ! Name
  {88ce2a15-2bc7-4cda-ba0c-331ba4670c85}, ! UUID
  {e4529065-7b95-4b5b-8d65-2af61951e031}, ! Version UUID
  1366307408,                             ! Creation Timestamp
  1366307408,                             ! Version Timestamp
  {a3e0858a-db87-476f-b713-c4fbf66e0bf8}; ! Name of Object 1

