
OS:Version,
  {771bc6fc-5433-4232-99b4-38e2df213343}, ! Handle
  0.9.3;                                  ! Version Identifier

OS:SizingPeriod:DesignDay,
  {e748931c-588a-4f08-bbcf-4f3925b7475e}, ! Handle
  PROVIDENCE Ann Hum_n 99.6% Condns DP=>MCDB, ! Name
  -11.5,                                  ! Maximum Dry-Bulb Temperature {C}
  0,                                      ! Daily Dry-Bulb Temperature Range {deltaC}
  -23.7,                                  ! Humidity Indicating Conditions at Maximum Dry-Bulb {BasedOnField A3}
  101097,                                 ! Barometric Pressure {Pa}
  5,                                      ! Wind Speed {m/s}
  330,                                    ! Wind Direction {deg}
  0,                                      ! Sky Clearness
  0,                                      ! Rain Indicator
  0,                                      ! Snow Indicator
  21,                                     ! Day of Month
  1,                                      ! Month
  WinterDesignDay,                        ! Day Type
  0,                                      ! Daylight Saving Time Indicator
  Dewpoint,                               ! Humidity Indicating Type
  ,                                       ! Humidity Indicating Day Schedule Name
  DefaultMultipliers,                     ! Dry-Bulb Temperature Range Modifier Type
  ,                                       ! Dry-Bulb Temperature Range Modifier Schedule Name
  ASHRAEClearSky;                         ! Solar Model Indicator

OS:ComponentData,
  {77bcee73-1851-481f-aabb-a6ec5fddb666}, ! Handle
  Component Data 1,                       ! Name
  {bd9c2f30-4c01-45d7-ad72-b67f1a349bec}, ! UUID
  {8e3764ba-0bc5-4cda-8d4a-e4d00dc422ad}, ! Version UUID
  1366310307,                             ! Creation Timestamp
  1366310307,                             ! Version Timestamp
  {e748931c-588a-4f08-bbcf-4f3925b7475e}; ! Name of Object 1

