
OS:Version,
  {332f448c-7d5a-4fc2-bb28-cbc5a54fc680}, ! Handle
  0.9.3;                                  ! Version Identifier

OS:SizingPeriod:DesignDay,
  {c9e51398-994c-4870-b8eb-92aa22b1a25e}, ! Handle
  Wilkes Barre Scranton Intl Ap Ann Clg 2% Condns WB=>MDB, ! Name
  26.4,                                   ! Maximum Dry-Bulb Temperature {C}
  10.8,                                   ! Daily Dry-Bulb Temperature Range {deltaC}
  22.2,                                   ! Humidity Indicating Conditions at Maximum Dry-Bulb {BasedOnField A3}
  97959,                                  ! Barometric Pressure {Pa}
  4.5,                                    ! Wind Speed {m/s}
  240,                                    ! Wind Direction {deg}
  0,                                      ! Sky Clearness
  0,                                      ! Rain Indicator
  0,                                      ! Snow Indicator
  21,                                     ! Day of Month
  7,                                      ! Month
  SummerDesignDay,                        ! Day Type
  0,                                      ! Daylight Saving Time Indicator
  Wetbulb,                                ! Humidity Indicating Type
  ,                                       ! Humidity Indicating Day Schedule Name
  DefaultMultipliers,                     ! Dry-Bulb Temperature Range Modifier Type
  ,                                       ! Dry-Bulb Temperature Range Modifier Schedule Name
  ASHRAETau,                              ! Solar Model Indicator
  ,                                       ! Beam Solar Day Schedule Name
  ,                                       ! Diffuse Solar Day Schedule Name
  0.477,                                  ! ASHRAE Taub {dimensionless}
  1.945;                                  ! ASHRAE Taud {dimensionless}

OS:ComponentData,
  {989d3ec1-538f-41c4-a9a6-f51c51111ca5}, ! Handle
  Component Data 1,                       ! Name
  {92496df6-cb89-4905-ba04-1c35d1d93386}, ! UUID
  {238d1e5e-4656-49ff-ae07-2e7faad3f68f}, ! Version UUID
  1366310266,                             ! Creation Timestamp
  1366310266,                             ! Version Timestamp
  {c9e51398-994c-4870-b8eb-92aa22b1a25e}; ! Name of Object 1

