
OS:Version,
  {b4426f81-1be3-4698-87f1-ef20734ec71d}, ! Handle
  0.9.3;                                  ! Version Identifier

OS:SizingPeriod:DesignDay,
  {027c23d1-4f88-49de-a3e3-7b855b279ded}, ! Handle
  Sanford Muni  Awos Ann Clg 2% Condns DB=>MWB, ! Name
  27.7,                                   ! Maximum Dry-Bulb Temperature {C}
  12.6,                                   ! Daily Dry-Bulb Temperature Range {deltaC}
  19.7,                                   ! Humidity Indicating Conditions at Maximum Dry-Bulb {BasedOnField A3}
  100439,                                 ! Barometric Pressure {Pa}
  3.9,                                    ! Wind Speed {m/s}
  230,                                    ! Wind Direction {deg}
  0,                                      ! Sky Clearness
  0,                                      ! Rain Indicator
  0,                                      ! Snow Indicator
  21,                                     ! Day of Month
  7,                                      ! Month
  SummerDesignDay,                        ! Day Type
  0,                                      ! Daylight Saving Time Indicator
  Wetbulb,                                ! Humidity Indicating Type
  ,                                       ! Humidity Indicating Day Schedule Name
  DefaultMultipliers,                     ! Dry-Bulb Temperature Range Modifier Type
  ,                                       ! Dry-Bulb Temperature Range Modifier Schedule Name
  ASHRAETau,                              ! Solar Model Indicator
  ,                                       ! Beam Solar Day Schedule Name
  ,                                       ! Diffuse Solar Day Schedule Name
  0.471,                                  ! ASHRAE Taub {dimensionless}
  1.98;                                   ! ASHRAE Taud {dimensionless}

OS:ComponentData,
  {daa76e64-9f09-460d-abef-eea0fea352cc}, ! Handle
  Component Data 1,                       ! Name
  {94e2f7ae-2626-4106-ae6c-75575299a022}, ! UUID
  {b66705ec-bfff-47fb-82a6-66a98342a41b}, ! Version UUID
  1366307926,                             ! Creation Timestamp
  1366307926,                             ! Version Timestamp
  {027c23d1-4f88-49de-a3e3-7b855b279ded}; ! Name of Object 1

