
OS:Version,
  {94da3514-676e-4af2-a14b-e1ea3c58137a}, ! Handle
  0.9.3;                                  ! Version Identifier

OS:SizingPeriod:DesignDay,
  {ac6e9b50-ed40-4051-98c8-aaff25703436}, ! Handle
  Seattle-Tacoma/Int'l A Ann Clg 1% Condns Enth=>MDB, ! Name
  25.9,                                   ! Maximum Dry-Bulb Temperature {C}
  10.4,                                   ! Daily Dry-Bulb Temperature Range {deltaC}
  51700,                                  ! Humidity Indicating Conditions at Maximum Dry-Bulb {BasedOnField A3}
  99690,                                  ! Barometric Pressure {Pa}
  4.2,                                    ! Wind Speed {m/s}
  350,                                    ! Wind Direction {deg}
  0,                                      ! Sky Clearness
  0,                                      ! Rain Indicator
  0,                                      ! Snow Indicator
  21,                                     ! Day of Month
  8,                                      ! Month
  SummerDesignDay,                        ! Day Type
  0,                                      ! Daylight Saving Time Indicator
  Enthalpy,                               ! Humidity Indicating Type
  ,                                       ! Humidity Indicating Day Schedule Name
  DefaultMultipliers,                     ! Dry-Bulb Temperature Range Modifier Type
  ,                                       ! Dry-Bulb Temperature Range Modifier Schedule Name
  ASHRAETau,                              ! Solar Model Indicator
  ,                                       ! Beam Solar Day Schedule Name
  ,                                       ! Diffuse Solar Day Schedule Name
  0.352,                                  ! ASHRAE Taub {dimensionless}
  2.561;                                  ! ASHRAE Taud {dimensionless}

OS:ComponentData,
  {d9b6956f-bca6-46fb-bb4c-8086afa7177e}, ! Handle
  Component Data 1,                       ! Name
  {cdf05dac-a11f-4a83-ac8a-bb26d70fe121}, ! UUID
  {6ad929a2-ced0-4c6f-96cc-04e1b674ca31}, ! Version UUID
  1366311360,                             ! Creation Timestamp
  1366311360,                             ! Version Timestamp
  {ac6e9b50-ed40-4051-98c8-aaff25703436}; ! Name of Object 1

