
OS:Version,
  {beb55db7-b0d1-4094-80fc-861c879825ee}, ! Handle
  0.9.3;                                  ! Version Identifier

OS:SizingPeriod:DesignDay,
  {97b603b7-7bac-4f1c-82ee-bfc4985a653c}, ! Handle
  Valdez Pioneer Fiel Ann Clg 2% Condns WB=>MDB, ! Name
  16.8,                                   ! Maximum Dry-Bulb Temperature {C}
  7,                                      ! Daily Dry-Bulb Temperature Range {deltaC}
  12.8,                                   ! Humidity Indicating Conditions at Maximum Dry-Bulb {BasedOnField A3}
  100869,                                 ! Barometric Pressure {Pa}
  3.6,                                    ! Wind Speed {m/s}
  260,                                    ! Wind Direction {deg}
  0,                                      ! Sky Clearness
  0,                                      ! Rain Indicator
  0,                                      ! Snow Indicator
  21,                                     ! Day of Month
  7,                                      ! Month
  SummerDesignDay,                        ! Day Type
  0,                                      ! Daylight Saving Time Indicator
  Wetbulb,                                ! Humidity Indicating Type
  ,                                       ! Humidity Indicating Day Schedule Name
  DefaultMultipliers,                     ! Dry-Bulb Temperature Range Modifier Type
  ,                                       ! Dry-Bulb Temperature Range Modifier Schedule Name
  ASHRAETau,                              ! Solar Model Indicator
  ,                                       ! Beam Solar Day Schedule Name
  ,                                       ! Diffuse Solar Day Schedule Name
  0.405,                                  ! ASHRAE Taub {dimensionless}
  2.035;                                  ! ASHRAE Taud {dimensionless}

OS:ComponentData,
  {03a4d358-9b32-464b-b190-0151f0f34ae1}, ! Handle
  Component Data 1,                       ! Name
  {46b2716c-4ec7-4c67-b750-46b9f1744713}, ! UUID
  {3ea1bbf5-bf21-4439-9dc5-f85ae012ded5}, ! Version UUID
  1366305605,                             ! Creation Timestamp
  1366305605,                             ! Version Timestamp
  {97b603b7-7bac-4f1c-82ee-bfc4985a653c}; ! Name of Object 1

