
OS:Version,
  {a10cfbaa-615b-4973-b8a0-2d52cd7b690c}, ! Handle
  0.9.3;                                  ! Version Identifier

OS:SizingPeriod:DesignDay,
  {55b37787-9fee-4177-8363-d08c7aef1e42}, ! Handle
  Red Bluff Municipal Arpt Ann Clg .4% Condns DB=>MWB, ! Name
  40.6,                                   ! Maximum Dry-Bulb Temperature {C}
  16.9,                                   ! Daily Dry-Bulb Temperature Range {deltaC}
  20.9,                                   ! Humidity Indicating Conditions at Maximum Dry-Bulb {BasedOnField A3}
  100058,                                 ! Barometric Pressure {Pa}
  3.9,                                    ! Wind Speed {m/s}
  150,                                    ! Wind Direction {deg}
  0,                                      ! Sky Clearness
  0,                                      ! Rain Indicator
  0,                                      ! Snow Indicator
  21,                                     ! Day of Month
  7,                                      ! Month
  SummerDesignDay,                        ! Day Type
  0,                                      ! Daylight Saving Time Indicator
  Wetbulb,                                ! Humidity Indicating Type
  ,                                       ! Humidity Indicating Day Schedule Name
  DefaultMultipliers,                     ! Dry-Bulb Temperature Range Modifier Type
  ,                                       ! Dry-Bulb Temperature Range Modifier Schedule Name
  ASHRAETau,                              ! Solar Model Indicator
  ,                                       ! Beam Solar Day Schedule Name
  ,                                       ! Diffuse Solar Day Schedule Name
  0.364,                                  ! ASHRAE Taub {dimensionless}
  2.504;                                  ! ASHRAE Taud {dimensionless}

OS:ComponentData,
  {53bd6b52-693e-4d99-94af-48f8b38acbc4}, ! Handle
  Component Data 1,                       ! Name
  {b9d13a2a-93c1-4b8e-8c12-26fe369e80ae}, ! UUID
  {6246ba53-9f7f-422f-ad34-0a3b2d01d699}, ! Version UUID
  1366306546,                             ! Creation Timestamp
  1366306546,                             ! Version Timestamp
  {55b37787-9fee-4177-8363-d08c7aef1e42}; ! Name of Object 1

