
OS:Version,
  {75ba6ce5-74c7-467c-b0f1-d60915a8ad76}, ! Handle
  0.9.3;                                  ! Version Identifier

OS:SizingPeriod:DesignDay,
  {85d4b843-5705-4bbe-bba1-7805747fe51d}, ! Handle
  Valparaiso Elgin Afb Ann Htg 99% Condns DB, ! Name
  0.3,                                    ! Maximum Dry-Bulb Temperature {C}
  0,                                      ! Daily Dry-Bulb Temperature Range {deltaC}
  0.3,                                    ! Humidity Indicating Conditions at Maximum Dry-Bulb {BasedOnField A3}
  101085,                                 ! Barometric Pressure {Pa}
  3.1,                                    ! Wind Speed {m/s}
  0,                                      ! Wind Direction {deg}
  0,                                      ! Sky Clearness
  0,                                      ! Rain Indicator
  0,                                      ! Snow Indicator
  21,                                     ! Day of Month
  1,                                      ! Month
  WinterDesignDay,                        ! Day Type
  0,                                      ! Daylight Saving Time Indicator
  Wetbulb,                                ! Humidity Indicating Type
  ,                                       ! Humidity Indicating Day Schedule Name
  DefaultMultipliers,                     ! Dry-Bulb Temperature Range Modifier Type
  ,                                       ! Dry-Bulb Temperature Range Modifier Schedule Name
  ASHRAEClearSky;                         ! Solar Model Indicator

OS:ComponentData,
  {5b535e4f-9893-41d0-90f3-ec79e4029bfa}, ! Handle
  Component Data 1,                       ! Name
  {5b148c50-c899-4ef1-9e05-b84255d25f12}, ! UUID
  {0c4b48eb-3d90-4d04-9226-fbd5c6c757ec}, ! Version UUID
  1366306942,                             ! Creation Timestamp
  1366306942,                             ! Version Timestamp
  {85d4b843-5705-4bbe-bba1-7805747fe51d}; ! Name of Object 1

