
OS:Version,
  {2069b7c4-b82a-4691-a6b1-8871029e7fb3}, ! Handle
  0.9.3;                                  ! Version Identifier

OS:SizingPeriod:DesignDay,
  {bd394d93-a137-4194-97ea-a82171a3e4e6}, ! Handle
  Minchumina Ann Clg 1% Condns DP=>MDB,   ! Name
  16.9,                                   ! Maximum Dry-Bulb Temperature {C}
  8.5,                                    ! Daily Dry-Bulb Temperature Range {deltaC}
  12.5,                                   ! Humidity Indicating Conditions at Maximum Dry-Bulb {BasedOnField A3}
  98792,                                  ! Barometric Pressure {Pa}
  1.7,                                    ! Wind Speed {m/s}
  70,                                     ! Wind Direction {deg}
  0,                                      ! Sky Clearness
  0,                                      ! Rain Indicator
  0,                                      ! Snow Indicator
  21,                                     ! Day of Month
  7,                                      ! Month
  SummerDesignDay,                        ! Day Type
  0,                                      ! Daylight Saving Time Indicator
  Dewpoint,                               ! Humidity Indicating Type
  ,                                       ! Humidity Indicating Day Schedule Name
  DefaultMultipliers,                     ! Dry-Bulb Temperature Range Modifier Type
  ,                                       ! Dry-Bulb Temperature Range Modifier Schedule Name
  ASHRAETau,                              ! Solar Model Indicator
  ,                                       ! Beam Solar Day Schedule Name
  ,                                       ! Diffuse Solar Day Schedule Name
  0.376,                                  ! ASHRAE Taub {dimensionless}
  2.222;                                  ! ASHRAE Taud {dimensionless}

OS:ComponentData,
  {9a575588-e799-4a7f-9f17-64d2ed84bc7b}, ! Handle
  Component Data 1,                       ! Name
  {cb490e82-ee37-4661-adb4-16bdfff03ed1}, ! UUID
  {31d4f67a-f1fb-4121-a6f3-679da13a5b2e}, ! Version UUID
  1366305436,                             ! Creation Timestamp
  1366305436,                             ! Version Timestamp
  {bd394d93-a137-4194-97ea-a82171a3e4e6}; ! Name of Object 1

