
OS:Version,
  {1c34d78d-d7e1-420d-be5f-50ba939821e0}, ! Handle
  0.9.3;                                  ! Version Identifier

OS:SizingPeriod:DesignDay,
  {b5dfe8ca-3155-4885-b4bb-964c14cc2189}, ! Handle
  Port Heiden Ann Hum_n 99% Condns DP=>MCDB, ! Name
  -8.2,                                   ! Maximum Dry-Bulb Temperature {C}
  0,                                      ! Daily Dry-Bulb Temperature Range {deltaC}
  -29.9,                                  ! Humidity Indicating Conditions at Maximum Dry-Bulb {BasedOnField A3}
  100977,                                 ! Barometric Pressure {Pa}
  6.8,                                    ! Wind Speed {m/s}
  40,                                     ! Wind Direction {deg}
  0,                                      ! Sky Clearness
  0,                                      ! Rain Indicator
  0,                                      ! Snow Indicator
  21,                                     ! Day of Month
  2,                                      ! Month
  WinterDesignDay,                        ! Day Type
  0,                                      ! Daylight Saving Time Indicator
  Dewpoint,                               ! Humidity Indicating Type
  ,                                       ! Humidity Indicating Day Schedule Name
  DefaultMultipliers,                     ! Dry-Bulb Temperature Range Modifier Type
  ,                                       ! Dry-Bulb Temperature Range Modifier Schedule Name
  ASHRAEClearSky;                         ! Solar Model Indicator

OS:ComponentData,
  {2ef8174e-1bfe-4831-b3ff-5b2616053cbc}, ! Handle
  Component Data 1,                       ! Name
  {28e92bdc-842c-4683-a53a-fb8c55e8dca8}, ! UUID
  {1c9640ae-aadf-47ef-ab26-27036ecf9b90}, ! Version UUID
  1366305501,                             ! Creation Timestamp
  1366305501,                             ! Version Timestamp
  {b5dfe8ca-3155-4885-b4bb-964c14cc2189}; ! Name of Object 1

