
OS:Version,
  {76a790a6-815f-4314-b6fb-5ade7914eadc}, ! Handle
  0.9.3;                                  ! Version Identifier

OS:SizingPeriod:DesignDay,
  {03f4e94a-2f25-42fc-8505-10ae0a75ac0e}, ! Handle
  Pierre Ann Htg Wind 99% Condns WS=>MCDB, ! Name
  -5.5,                                   ! Maximum Dry-Bulb Temperature {C}
  0,                                      ! Daily Dry-Bulb Temperature Range {deltaC}
  -5.5,                                   ! Humidity Indicating Conditions at Maximum Dry-Bulb {BasedOnField A3}
  95106,                                  ! Barometric Pressure {Pa}
  13.6,                                   ! Wind Speed {m/s}
  310,                                    ! Wind Direction {deg}
  0,                                      ! Sky Clearness
  0,                                      ! Rain Indicator
  0,                                      ! Snow Indicator
  21,                                     ! Day of Month
  1,                                      ! Month
  WinterDesignDay,                        ! Day Type
  0,                                      ! Daylight Saving Time Indicator
  Wetbulb,                                ! Humidity Indicating Type
  ,                                       ! Humidity Indicating Day Schedule Name
  DefaultMultipliers,                     ! Dry-Bulb Temperature Range Modifier Type
  ,                                       ! Dry-Bulb Temperature Range Modifier Schedule Name
  ASHRAEClearSky;                         ! Solar Model Indicator

OS:ComponentData,
  {781dbe74-3adc-478e-9cfa-2f110b789b18}, ! Handle
  Component Data 1,                       ! Name
  {9f2658c1-574f-46c7-b113-cda849d1b6d7}, ! UUID
  {727acfcf-b1c9-42d9-9a91-7aeb262040c5}, ! Version UUID
  1366310430,                             ! Creation Timestamp
  1366310430,                             ! Version Timestamp
  {03f4e94a-2f25-42fc-8505-10ae0a75ac0e}; ! Name of Object 1

