
OS:Version,
  {3fda39db-9fe8-40e0-8ded-92b6b226dfa5}, ! Handle
  0.9.3;                                  ! Version Identifier

OS:SizingPeriod:DesignDay,
  {8a61aa32-a14d-481d-85d9-cabf4c0f696f}, ! Handle
  San Diego Montgomer Ann Clg 1% Condns DP=>MDB, ! Name
  23.6,                                   ! Maximum Dry-Bulb Temperature {C}
  7.8,                                    ! Daily Dry-Bulb Temperature Range {deltaC}
  19.2,                                   ! Humidity Indicating Conditions at Maximum Dry-Bulb {BasedOnField A3}
  99785,                                  ! Barometric Pressure {Pa}
  4,                                      ! Wind Speed {m/s}
  300,                                    ! Wind Direction {deg}
  0,                                      ! Sky Clearness
  0,                                      ! Rain Indicator
  0,                                      ! Snow Indicator
  21,                                     ! Day of Month
  8,                                      ! Month
  SummerDesignDay,                        ! Day Type
  0,                                      ! Daylight Saving Time Indicator
  Dewpoint,                               ! Humidity Indicating Type
  ,                                       ! Humidity Indicating Day Schedule Name
  DefaultMultipliers,                     ! Dry-Bulb Temperature Range Modifier Type
  ,                                       ! Dry-Bulb Temperature Range Modifier Schedule Name
  ASHRAETau,                              ! Solar Model Indicator
  ,                                       ! Beam Solar Day Schedule Name
  ,                                       ! Diffuse Solar Day Schedule Name
  0.417,                                  ! ASHRAE Taub {dimensionless}
  2.236;                                  ! ASHRAE Taud {dimensionless}

OS:ComponentData,
  {b2afb402-288a-4096-b848-fca46700fefb}, ! Handle
  Component Data 1,                       ! Name
  {c20c805d-fb12-4ab8-b119-233ee9951d10}, ! UUID
  {35c9700e-e3c1-464b-956c-83ed80772f26}, ! Version UUID
  1366306580,                             ! Creation Timestamp
  1366306580,                             ! Version Timestamp
  {8a61aa32-a14d-481d-85d9-cabf4c0f696f}; ! Name of Object 1

