
OS:Version,
  {f028751e-6d00-43e5-8370-4708172634ef}, ! Handle
  0.9.3;                                  ! Version Identifier

OS:SizingPeriod:DesignDay,
  {837efade-043b-4e77-a9c1-4079e2d05bcb}, ! Handle
  Mobile Regional Ap Ann Clg 1% Condns WB=>MDB, ! Name
  30.6,                                   ! Maximum Dry-Bulb Temperature {C}
  9.4,                                    ! Daily Dry-Bulb Temperature Range {deltaC}
  26.1,                                   ! Humidity Indicating Conditions at Maximum Dry-Bulb {BasedOnField A3}
  100535,                                 ! Barometric Pressure {Pa}
  3.5,                                    ! Wind Speed {m/s}
  350,                                    ! Wind Direction {deg}
  0,                                      ! Sky Clearness
  0,                                      ! Rain Indicator
  0,                                      ! Snow Indicator
  21,                                     ! Day of Month
  7,                                      ! Month
  SummerDesignDay,                        ! Day Type
  0,                                      ! Daylight Saving Time Indicator
  Wetbulb,                                ! Humidity Indicating Type
  ,                                       ! Humidity Indicating Day Schedule Name
  DefaultMultipliers,                     ! Dry-Bulb Temperature Range Modifier Type
  ,                                       ! Dry-Bulb Temperature Range Modifier Schedule Name
  ASHRAETau,                              ! Solar Model Indicator
  ,                                       ! Beam Solar Day Schedule Name
  ,                                       ! Diffuse Solar Day Schedule Name
  0.538,                                  ! ASHRAE Taub {dimensionless}
  1.867;                                  ! ASHRAE Taud {dimensionless}

OS:ComponentData,
  {afeeb4a8-ce50-461f-8db0-bf7e2db251cd}, ! Handle
  Component Data 1,                       ! Name
  {30a5f665-538d-4e6a-841b-08e3fdb01741}, ! UUID
  {9a185306-b71a-4e25-85fa-24e4dec5c9a8}, ! Version UUID
  1366305794,                             ! Creation Timestamp
  1366305794,                             ! Version Timestamp
  {837efade-043b-4e77-a9c1-4079e2d05bcb}; ! Name of Object 1

