
OS:Version,
  {b3c65f94-61d1-4f81-9abd-8db3ec99f45e}, ! Handle
  0.9.3;                                  ! Version Identifier

OS:SizingPeriod:DesignDay,
  {4fb6aa6d-a475-4556-b717-3b0fd271234b}, ! Handle
  Toledo Express Airport Ann Clg .4% Condns WB=>MDB, ! Name
  30.5,                                   ! Maximum Dry-Bulb Temperature {C}
  11.5,                                   ! Daily Dry-Bulb Temperature Range {deltaC}
  25.1,                                   ! Humidity Indicating Conditions at Maximum Dry-Bulb {BasedOnField A3}
  98898,                                  ! Barometric Pressure {Pa}
  4.8,                                    ! Wind Speed {m/s}
  230,                                    ! Wind Direction {deg}
  0,                                      ! Sky Clearness
  0,                                      ! Rain Indicator
  0,                                      ! Snow Indicator
  21,                                     ! Day of Month
  7,                                      ! Month
  SummerDesignDay,                        ! Day Type
  0,                                      ! Daylight Saving Time Indicator
  Wetbulb,                                ! Humidity Indicating Type
  ,                                       ! Humidity Indicating Day Schedule Name
  DefaultMultipliers,                     ! Dry-Bulb Temperature Range Modifier Type
  ,                                       ! Dry-Bulb Temperature Range Modifier Schedule Name
  ASHRAETau,                              ! Solar Model Indicator
  ,                                       ! Beam Solar Day Schedule Name
  ,                                       ! Diffuse Solar Day Schedule Name
  0.45,                                   ! ASHRAE Taub {dimensionless}
  2.065;                                  ! ASHRAE Taud {dimensionless}

OS:ComponentData,
  {b5544da0-eedc-4fc1-b699-20d8387cfea6}, ! Handle
  Component Data 1,                       ! Name
  {0613eccb-33cb-458c-99cc-ef002c2e8f27}, ! UUID
  {cda84455-b501-428f-993d-1d49340bcfe9}, ! Version UUID
  1366309856,                             ! Creation Timestamp
  1366309856,                             ! Version Timestamp
  {4fb6aa6d-a475-4556-b717-3b0fd271234b}; ! Name of Object 1

