
OS:Version,
  {bd6c4b0d-22f2-47ad-ab20-a5961ff5e8d0}, ! Handle
  0.9.3;                                  ! Version Identifier

OS:SizingPeriod:DesignDay,
  {366b67d0-70be-434b-a5ed-68c1cb20d7b7}, ! Handle
  Mayport Ns Ann Clg 2% Condns DB=>MWB,   ! Name
  32.4,                                   ! Maximum Dry-Bulb Temperature {C}
  8.3,                                    ! Daily Dry-Bulb Temperature Range {deltaC}
  25.2,                                   ! Humidity Indicating Conditions at Maximum Dry-Bulb {BasedOnField A3}
  101265,                                 ! Barometric Pressure {Pa}
  3.3,                                    ! Wind Speed {m/s}
  270,                                    ! Wind Direction {deg}
  0,                                      ! Sky Clearness
  0,                                      ! Rain Indicator
  0,                                      ! Snow Indicator
  21,                                     ! Day of Month
  7,                                      ! Month
  SummerDesignDay,                        ! Day Type
  0,                                      ! Daylight Saving Time Indicator
  Wetbulb,                                ! Humidity Indicating Type
  ,                                       ! Humidity Indicating Day Schedule Name
  DefaultMultipliers,                     ! Dry-Bulb Temperature Range Modifier Type
  ,                                       ! Dry-Bulb Temperature Range Modifier Schedule Name
  ASHRAETau,                              ! Solar Model Indicator
  ,                                       ! Beam Solar Day Schedule Name
  ,                                       ! Diffuse Solar Day Schedule Name
  0.537,                                  ! ASHRAE Taub {dimensionless}
  1.879;                                  ! ASHRAE Taud {dimensionless}

OS:ComponentData,
  {9d3f65f0-ca9c-4124-8447-8898bc261521}, ! Handle
  Component Data 1,                       ! Name
  {abaea1eb-2156-4c68-9485-0e353ffa0b9f}, ! UUID
  {b7adfc0a-d44f-433f-a9ba-a249786c0385}, ! Version UUID
  1366306850,                             ! Creation Timestamp
  1366306850,                             ! Version Timestamp
  {366b67d0-70be-434b-a5ed-68c1cb20d7b7}; ! Name of Object 1

