
OS:Version,
  {8b974fda-f0cd-4f74-83a7-af53c3a4a984}, ! Handle
  0.9.3;                                  ! Version Identifier

OS:SizingPeriod:DesignDay,
  {ca53db6b-4c63-4ad4-9087-f717d6db88fc}, ! Handle
  Yuma Ann Htg Wind 99% Condns WS=>MCDB,  ! Name
  14.8,                                   ! Maximum Dry-Bulb Temperature {C}
  0,                                      ! Daily Dry-Bulb Temperature Range {deltaC}
  14.8,                                   ! Humidity Indicating Conditions at Maximum Dry-Bulb {BasedOnField A3}
  100582,                                 ! Barometric Pressure {Pa}
  9.3,                                    ! Wind Speed {m/s}
  30,                                     ! Wind Direction {deg}
  0,                                      ! Sky Clearness
  0,                                      ! Rain Indicator
  0,                                      ! Snow Indicator
  21,                                     ! Day of Month
  12,                                     ! Month
  WinterDesignDay,                        ! Day Type
  0,                                      ! Daylight Saving Time Indicator
  Wetbulb,                                ! Humidity Indicating Type
  ,                                       ! Humidity Indicating Day Schedule Name
  DefaultMultipliers,                     ! Dry-Bulb Temperature Range Modifier Type
  ,                                       ! Dry-Bulb Temperature Range Modifier Schedule Name
  ASHRAEClearSky;                         ! Solar Model Indicator

OS:ComponentData,
  {03c0b16f-e292-4d56-90a2-fe647ce771c5}, ! Handle
  Component Data 1,                       ! Name
  {8be1cce4-d1a0-49dc-9118-19dcfc21c213}, ! UUID
  {eb04dcd3-3b50-4d84-9f9f-471a719dbf91}, ! Version UUID
  1366306333,                             ! Creation Timestamp
  1366306333,                             ! Version Timestamp
  {ca53db6b-4c63-4ad4-9087-f717d6db88fc}; ! Name of Object 1

