
OS:Version,
  {8ba7f81c-2b02-4479-bf25-1df5fbec9ec4}, ! Handle
  0.9.3;                                  ! Version Identifier

OS:SizingPeriod:DesignDay,
  {e6996402-02b6-4bab-95e0-4d7530379cc5}, ! Handle
  Yuma Ann Clg .4% Condns WB=>MDB,        ! Name
  36,                                     ! Maximum Dry-Bulb Temperature {C}
  13.1,                                   ! Daily Dry-Bulb Temperature Range {deltaC}
  26.6,                                   ! Humidity Indicating Conditions at Maximum Dry-Bulb {BasedOnField A3}
  100582,                                 ! Barometric Pressure {Pa}
  3.3,                                    ! Wind Speed {m/s}
  270,                                    ! Wind Direction {deg}
  0,                                      ! Sky Clearness
  0,                                      ! Rain Indicator
  0,                                      ! Snow Indicator
  21,                                     ! Day of Month
  7,                                      ! Month
  SummerDesignDay,                        ! Day Type
  0,                                      ! Daylight Saving Time Indicator
  Wetbulb,                                ! Humidity Indicating Type
  ,                                       ! Humidity Indicating Day Schedule Name
  DefaultMultipliers,                     ! Dry-Bulb Temperature Range Modifier Type
  ,                                       ! Dry-Bulb Temperature Range Modifier Schedule Name
  ASHRAETau,                              ! Solar Model Indicator
  ,                                       ! Beam Solar Day Schedule Name
  ,                                       ! Diffuse Solar Day Schedule Name
  0.533,                                  ! ASHRAE Taub {dimensionless}
  1.764;                                  ! ASHRAE Taud {dimensionless}

OS:ComponentData,
  {b5301d1d-4a93-469b-982b-da2adadc1515}, ! Handle
  Component Data 1,                       ! Name
  {6eab71aa-8759-4232-a1ee-ce7644f3d250}, ! UUID
  {faa364a4-fb95-40ee-8f23-db7d34b9f2b1}, ! Version UUID
  1366306334,                             ! Creation Timestamp
  1366306334,                             ! Version Timestamp
  {e6996402-02b6-4bab-95e0-4d7530379cc5}; ! Name of Object 1

