
OS:Version,
  {6c3459f9-43ba-4a3e-91b9-523d81ffa607}, ! Handle
  0.9.3;                                  ! Version Identifier

OS:SizingPeriod:DesignDay,
  {2fba6b1b-63b8-484f-b839-338dc7ce69c2}, ! Handle
  TALKEETNA Ann Clg 1% Condns DP=>MDB,    ! Name
  16.7,                                   ! Maximum Dry-Bulb Temperature {C}
  8.8,                                    ! Daily Dry-Bulb Temperature Range {deltaC}
  13.3,                                   ! Humidity Indicating Conditions at Maximum Dry-Bulb {BasedOnField A3}
  100070,                                 ! Barometric Pressure {Pa}
  2.9,                                    ! Wind Speed {m/s}
  180,                                    ! Wind Direction {deg}
  0,                                      ! Sky Clearness
  0,                                      ! Rain Indicator
  0,                                      ! Snow Indicator
  21,                                     ! Day of Month
  7,                                      ! Month
  SummerDesignDay,                        ! Day Type
  0,                                      ! Daylight Saving Time Indicator
  Dewpoint,                               ! Humidity Indicating Type
  ,                                       ! Humidity Indicating Day Schedule Name
  DefaultMultipliers,                     ! Dry-Bulb Temperature Range Modifier Type
  ,                                       ! Dry-Bulb Temperature Range Modifier Schedule Name
  ASHRAETau,                              ! Solar Model Indicator
  ,                                       ! Beam Solar Day Schedule Name
  ,                                       ! Diffuse Solar Day Schedule Name
  0.379,                                  ! ASHRAE Taub {dimensionless}
  2.177;                                  ! ASHRAE Taud {dimensionless}

OS:ComponentData,
  {04fb9dd6-c4f6-4c55-8456-eff5538bf454}, ! Handle
  Component Data 1,                       ! Name
  {29f251dc-48b1-4bf3-85e2-ca1304cee1c9}, ! UUID
  {e39ff1aa-c240-48f7-94e2-d135203a83ad}, ! Version UUID
  1366305583,                             ! Creation Timestamp
  1366305583,                             ! Version Timestamp
  {2fba6b1b-63b8-484f-b839-338dc7ce69c2}; ! Name of Object 1

