
OS:Version,
  {c4d4234a-e3e8-4acb-8271-a718edd41d7f}, ! Handle
  0.9.3;                                  ! Version Identifier

OS:SizingPeriod:DesignDay,
  {69900a3b-04bd-43de-bd43-db558e1e9939}, ! Handle
  OMAHA Ann Htg 99.6% Condns DB,          ! Name
  -21.3,                                  ! Maximum Dry-Bulb Temperature {C}
  0,                                      ! Daily Dry-Bulb Temperature Range {deltaC}
  -21.3,                                  ! Humidity Indicating Conditions at Maximum Dry-Bulb {BasedOnField A3}
  96565,                                  ! Barometric Pressure {Pa}
  4.5,                                    ! Wind Speed {m/s}
  340,                                    ! Wind Direction {deg}
  0,                                      ! Sky Clearness
  0,                                      ! Rain Indicator
  0,                                      ! Snow Indicator
  21,                                     ! Day of Month
  1,                                      ! Month
  WinterDesignDay,                        ! Day Type
  0,                                      ! Daylight Saving Time Indicator
  Wetbulb,                                ! Humidity Indicating Type
  ,                                       ! Humidity Indicating Day Schedule Name
  DefaultMultipliers,                     ! Dry-Bulb Temperature Range Modifier Type
  ,                                       ! Dry-Bulb Temperature Range Modifier Schedule Name
  ASHRAEClearSky;                         ! Solar Model Indicator

OS:ComponentData,
  {c664173d-d0f5-408a-a115-98c34b053334}, ! Handle
  Component Data 1,                       ! Name
  {ad6b1eb3-17fc-4a64-97bf-71dfa6490316}, ! UUID
  {3d64c8d5-e76c-4060-9558-a028b96d532d}, ! Version UUID
  1366309176,                             ! Creation Timestamp
  1366309176,                             ! Version Timestamp
  {69900a3b-04bd-43de-bd43-db558e1e9939}; ! Name of Object 1

