
OS:Version,
  {e4353d8e-0e48-4ff1-964a-01d4a50bb4a8}, ! Handle
  0.9.3;                                  ! Version Identifier

OS:SizingPeriod:DesignDay,
  {7ea134fc-9933-4fe7-b5ec-9b4494d36fa5}, ! Handle
  Stillwater Rgnl Ann Clg .4% Condns WB=>MDB, ! Name
  34.1,                                   ! Maximum Dry-Bulb Temperature {C}
  12.5,                                   ! Daily Dry-Bulb Temperature Range {deltaC}
  26.1,                                   ! Humidity Indicating Conditions at Maximum Dry-Bulb {BasedOnField A3}
  97679,                                  ! Barometric Pressure {Pa}
  5.6,                                    ! Wind Speed {m/s}
  160,                                    ! Wind Direction {deg}
  0,                                      ! Sky Clearness
  0,                                      ! Rain Indicator
  0,                                      ! Snow Indicator
  21,                                     ! Day of Month
  7,                                      ! Month
  SummerDesignDay,                        ! Day Type
  0,                                      ! Daylight Saving Time Indicator
  Wetbulb,                                ! Humidity Indicating Type
  ,                                       ! Humidity Indicating Day Schedule Name
  DefaultMultipliers,                     ! Dry-Bulb Temperature Range Modifier Type
  ,                                       ! Dry-Bulb Temperature Range Modifier Schedule Name
  ASHRAETau,                              ! Solar Model Indicator
  ,                                       ! Beam Solar Day Schedule Name
  ,                                       ! Diffuse Solar Day Schedule Name
  0.433,                                  ! ASHRAE Taub {dimensionless}
  2.181;                                  ! ASHRAE Taud {dimensionless}

OS:ComponentData,
  {b220b582-814e-431b-aef8-8b30dbeeb18e}, ! Handle
  Component Data 1,                       ! Name
  {737ad393-85ca-43fa-b80d-c1a42a5f1e28}, ! UUID
  {7213877e-deff-4714-a2c9-e863a7199725}, ! Version UUID
  1366309945,                             ! Creation Timestamp
  1366309945,                             ! Version Timestamp
  {7ea134fc-9933-4fe7-b5ec-9b4494d36fa5}; ! Name of Object 1

