
OS:Version,
  {a6d10280-6393-4e05-9635-cd3bd6a59b2d}, ! Handle
  0.9.3;                                  ! Version Identifier

OS:SizingPeriod:DesignDay,
  {541b7801-acf4-4a00-843a-25825a1f932b}, ! Handle
  Sault Ste Marie Sanderson Fie Ann Hum_n 99% Condns DP=>MCDB, ! Name
  -20.2,                                  ! Maximum Dry-Bulb Temperature {C}
  0,                                      ! Daily Dry-Bulb Temperature Range {deltaC}
  -26.3,                                  ! Humidity Indicating Conditions at Maximum Dry-Bulb {BasedOnField A3}
  98722,                                  ! Barometric Pressure {Pa}
  2.4,                                    ! Wind Speed {m/s}
  90,                                     ! Wind Direction {deg}
  0,                                      ! Sky Clearness
  0,                                      ! Rain Indicator
  0,                                      ! Snow Indicator
  21,                                     ! Day of Month
  1,                                      ! Month
  WinterDesignDay,                        ! Day Type
  0,                                      ! Daylight Saving Time Indicator
  Dewpoint,                               ! Humidity Indicating Type
  ,                                       ! Humidity Indicating Day Schedule Name
  DefaultMultipliers,                     ! Dry-Bulb Temperature Range Modifier Type
  ,                                       ! Dry-Bulb Temperature Range Modifier Schedule Name
  ASHRAEClearSky;                         ! Solar Model Indicator

OS:ComponentData,
  {9cbd67cb-952d-4e88-9b44-984d23087490}, ! Handle
  Component Data 1,                       ! Name
  {e8906d64-f734-4d02-9b42-74ccd6d63d9e}, ! UUID
  {23cf9a3c-d7a6-405d-9fd2-a3e7aa5170c1}, ! Version UUID
  1366308105,                             ! Creation Timestamp
  1366308105,                             ! Version Timestamp
  {541b7801-acf4-4a00-843a-25825a1f932b}; ! Name of Object 1

