
OS:Version,
  {14998b20-5fee-4fa0-8fde-9406f95a8e27}, ! Handle
  0.9.3;                                  ! Version Identifier

OS:SizingPeriod:DesignDay,
  {84153224-1c4e-4cb8-8e8b-496daa6e4588}, ! Handle
  Petersburg Ann Clg .4% Condns WB=>MDB,  ! Name
  19,                                     ! Maximum Dry-Bulb Temperature {C}
  6.1,                                    ! Daily Dry-Bulb Temperature Range {deltaC}
  15.1,                                   ! Humidity Indicating Conditions at Maximum Dry-Bulb {BasedOnField A3}
  100929,                                 ! Barometric Pressure {Pa}
  2.7,                                    ! Wind Speed {m/s}
  70,                                     ! Wind Direction {deg}
  0,                                      ! Sky Clearness
  0,                                      ! Rain Indicator
  0,                                      ! Snow Indicator
  21,                                     ! Day of Month
  7,                                      ! Month
  SummerDesignDay,                        ! Day Type
  0,                                      ! Daylight Saving Time Indicator
  Wetbulb,                                ! Humidity Indicating Type
  ,                                       ! Humidity Indicating Day Schedule Name
  DefaultMultipliers,                     ! Dry-Bulb Temperature Range Modifier Type
  ,                                       ! Dry-Bulb Temperature Range Modifier Schedule Name
  ASHRAETau,                              ! Solar Model Indicator
  ,                                       ! Beam Solar Day Schedule Name
  ,                                       ! Diffuse Solar Day Schedule Name
  0.393,                                  ! ASHRAE Taub {dimensionless}
  2.173;                                  ! ASHRAE Taud {dimensionless}

OS:ComponentData,
  {bfa960ba-2c67-4e30-8dcf-f2d741c928e2}, ! Handle
  Component Data 1,                       ! Name
  {5a3f5472-4705-4eb3-94ca-ae642917f931}, ! UUID
  {aa25980f-817b-4482-a052-f952f655a32a}, ! Version UUID
  1366305483,                             ! Creation Timestamp
  1366305483,                             ! Version Timestamp
  {84153224-1c4e-4cb8-8e8b-496daa6e4588}; ! Name of Object 1

