
OS:Version,
  {f8097f68-2624-4c4c-83ea-3f3b99d61c87}, ! Handle
  0.9.3;                                  ! Version Identifier

OS:SizingPeriod:DesignDay,
  {90d87314-8ca1-4866-a161-6a5b2f54acf3}, ! Handle
  Shemya Afb Ann Clg 2% Condns DP=>MDB,   ! Name
  10.4,                                   ! Maximum Dry-Bulb Temperature {C}
  2.5,                                    ! Daily Dry-Bulb Temperature Range {deltaC}
  9.4,                                    ! Humidity Indicating Conditions at Maximum Dry-Bulb {BasedOnField A3}
  100953,                                 ! Barometric Pressure {Pa}
  6.5,                                    ! Wind Speed {m/s}
  240,                                    ! Wind Direction {deg}
  0,                                      ! Sky Clearness
  0,                                      ! Rain Indicator
  0,                                      ! Snow Indicator
  21,                                     ! Day of Month
  8,                                      ! Month
  SummerDesignDay,                        ! Day Type
  0,                                      ! Daylight Saving Time Indicator
  Dewpoint,                               ! Humidity Indicating Type
  ,                                       ! Humidity Indicating Day Schedule Name
  DefaultMultipliers,                     ! Dry-Bulb Temperature Range Modifier Type
  ,                                       ! Dry-Bulb Temperature Range Modifier Schedule Name
  ASHRAETau,                              ! Solar Model Indicator
  ,                                       ! Beam Solar Day Schedule Name
  ,                                       ! Diffuse Solar Day Schedule Name
  0.391,                                  ! ASHRAE Taub {dimensionless}
  2.284;                                  ! ASHRAE Taud {dimensionless}

