
OS:Version,
  {02cf8e3c-7033-4143-b039-0189c738dc7c}, ! Handle
  0.9.3;                                  ! Version Identifier

OS:SizingPeriod:DesignDay,
  {8a6af337-4e71-475e-bc5f-0e8d9eae7037}, ! Handle
  Shannon Arpt Ann Hum_n 99.6% Condns DP=>MCDB, ! Name
  -6.9,                                   ! Maximum Dry-Bulb Temperature {C}
  0,                                      ! Daily Dry-Bulb Temperature Range {deltaC}
  -18,                                    ! Humidity Indicating Conditions at Maximum Dry-Bulb {BasedOnField A3}
  101013,                                 ! Barometric Pressure {Pa}
  1.6,                                    ! Wind Speed {m/s}
  330,                                    ! Wind Direction {deg}
  0,                                      ! Sky Clearness
  0,                                      ! Rain Indicator
  0,                                      ! Snow Indicator
  21,                                     ! Day of Month
  1,                                      ! Month
  WinterDesignDay,                        ! Day Type
  0,                                      ! Daylight Saving Time Indicator
  Dewpoint,                               ! Humidity Indicating Type
  ,                                       ! Humidity Indicating Day Schedule Name
  DefaultMultipliers,                     ! Dry-Bulb Temperature Range Modifier Type
  ,                                       ! Dry-Bulb Temperature Range Modifier Schedule Name
  ASHRAEClearSky;                         ! Solar Model Indicator

OS:ComponentData,
  {ce671175-fc65-40a7-85f8-218be8325daa}, ! Handle
  Component Data 1,                       ! Name
  {07c1d761-61c4-4d35-90ae-3a9974f97742}, ! UUID
  {25573ba4-94c4-491b-bd55-200e715d95b1}, ! Version UUID
  1366311052,                             ! Creation Timestamp
  1366311052,                             ! Version Timestamp
  {8a6af337-4e71-475e-bc5f-0e8d9eae7037}; ! Name of Object 1

