
OS:Version,
  {ace0517c-b8b4-4dfa-8d11-3e92b8249b15}, ! Handle
  0.9.3;                                  ! Version Identifier

OS:SizingPeriod:DesignDay,
  {5d3f012c-4772-4619-a37f-8a509470d37a}, ! Handle
  MASON_CITY Ann Htg 99% Condns DB,       ! Name
  -22.2,                                  ! Maximum Dry-Bulb Temperature {C}
  0,                                      ! Daily Dry-Bulb Temperature Range {deltaC}
  -22.2,                                  ! Humidity Indicating Conditions at Maximum Dry-Bulb {BasedOnField A3}
  96924,                                  ! Barometric Pressure {Pa}
  5,                                      ! Wind Speed {m/s}
  300,                                    ! Wind Direction {deg}
  0,                                      ! Sky Clearness
  0,                                      ! Rain Indicator
  0,                                      ! Snow Indicator
  21,                                     ! Day of Month
  1,                                      ! Month
  WinterDesignDay,                        ! Day Type
  0,                                      ! Daylight Saving Time Indicator
  Wetbulb,                                ! Humidity Indicating Type
  ,                                       ! Humidity Indicating Day Schedule Name
  DefaultMultipliers,                     ! Dry-Bulb Temperature Range Modifier Type
  ,                                       ! Dry-Bulb Temperature Range Modifier Schedule Name
  ASHRAEClearSky;                         ! Solar Model Indicator

OS:ComponentData,
  {e31fb708-88a7-470e-b159-f7b9c0a47d66}, ! Handle
  Component Data 1,                       ! Name
  {6b30ea85-bc92-424b-848f-d51ef5f06482}, ! UUID
  {a68549bf-adde-4f84-8303-c986b22fbe04}, ! Version UUID
  1366307209,                             ! Creation Timestamp
  1366307209,                             ! Version Timestamp
  {5d3f012c-4772-4619-a37f-8a509470d37a}; ! Name of Object 1

