
OS:Version,
  {be1f1691-a37a-4564-b9e1-86837f0f8407}, ! Handle
  0.9.3;                                  ! Version Identifier

OS:SizingPeriod:DesignDay,
  {c05909f3-8489-4ae6-bef0-87b78a71c60b}, ! Handle
  San Diego Miramar Nas Ann Clg .4% Condns DB=>MWB, ! Name
  32.4,                                   ! Maximum Dry-Bulb Temperature {C}
  9.9,                                    ! Daily Dry-Bulb Temperature Range {deltaC}
  19.8,                                   ! Humidity Indicating Conditions at Maximum Dry-Bulb {BasedOnField A3}
  99654,                                  ! Barometric Pressure {Pa}
  3.2,                                    ! Wind Speed {m/s}
  320,                                    ! Wind Direction {deg}
  0,                                      ! Sky Clearness
  0,                                      ! Rain Indicator
  0,                                      ! Snow Indicator
  21,                                     ! Day of Month
  8,                                      ! Month
  SummerDesignDay,                        ! Day Type
  0,                                      ! Daylight Saving Time Indicator
  Wetbulb,                                ! Humidity Indicating Type
  ,                                       ! Humidity Indicating Day Schedule Name
  DefaultMultipliers,                     ! Dry-Bulb Temperature Range Modifier Type
  ,                                       ! Dry-Bulb Temperature Range Modifier Schedule Name
  ASHRAETau,                              ! Solar Model Indicator
  ,                                       ! Beam Solar Day Schedule Name
  ,                                       ! Diffuse Solar Day Schedule Name
  0.416,                                  ! ASHRAE Taub {dimensionless}
  2.234;                                  ! ASHRAE Taud {dimensionless}

OS:ComponentData,
  {deebe595-bfa5-48a0-9e63-f3404799da0d}, ! Handle
  Component Data 1,                       ! Name
  {45823b50-5875-43b4-be2d-0461cb1b71fb}, ! UUID
  {3012e010-2db6-493f-a697-674a44ad31fc}, ! Version UUID
  1366306577,                             ! Creation Timestamp
  1366306577,                             ! Version Timestamp
  {c05909f3-8489-4ae6-bef0-87b78a71c60b}; ! Name of Object 1

