
OS:Version,
  {322522e5-a013-4821-a2eb-89b100fe9b9e}, ! Handle
  0.9.3;                                  ! Version Identifier

OS:SizingPeriod:DesignDay,
  {b2304200-1863-4c1c-8950-28a0681639fb}, ! Handle
  Missoula International Ap Ann Clg 1% Condns Enth=>MDB, ! Name
  28.1,                                   ! Maximum Dry-Bulb Temperature {C}
  17.5,                                   ! Daily Dry-Bulb Temperature Range {deltaC}
  53000,                                  ! Humidity Indicating Conditions at Maximum Dry-Bulb {BasedOnField A3}
  90169,                                  ! Barometric Pressure {Pa}
  4.4,                                    ! Wind Speed {m/s}
  320,                                    ! Wind Direction {deg}
  0,                                      ! Sky Clearness
  0,                                      ! Rain Indicator
  0,                                      ! Snow Indicator
  21,                                     ! Day of Month
  7,                                      ! Month
  SummerDesignDay,                        ! Day Type
  0,                                      ! Daylight Saving Time Indicator
  Enthalpy,                               ! Humidity Indicating Type
  ,                                       ! Humidity Indicating Day Schedule Name
  DefaultMultipliers,                     ! Dry-Bulb Temperature Range Modifier Type
  ,                                       ! Dry-Bulb Temperature Range Modifier Schedule Name
  ASHRAETau,                              ! Solar Model Indicator
  ,                                       ! Beam Solar Day Schedule Name
  ,                                       ! Diffuse Solar Day Schedule Name
  0.357,                                  ! ASHRAE Taub {dimensionless}
  2.409;                                  ! ASHRAE Taud {dimensionless}

