
OS:Version,
  {a752a3aa-7796-49c1-8cb4-0f4ec71a2efd}, ! Handle
  0.9.3;                                  ! Version Identifier

OS:SizingPeriod:DesignDay,
  {a1e73c72-9a44-4e06-8c60-efa33e537ac1}, ! Handle
  TRAVERSE_CITY Ann Hum_n 99% Condns DP=>MCDB, ! Name
  -14.4,                                  ! Maximum Dry-Bulb Temperature {C}
  0,                                      ! Daily Dry-Bulb Temperature Range {deltaC}
  -18.9,                                  ! Humidity Indicating Conditions at Maximum Dry-Bulb {BasedOnField A3}
  99040,                                  ! Barometric Pressure {Pa}
  2.5,                                    ! Wind Speed {m/s}
  190,                                    ! Wind Direction {deg}
  0,                                      ! Sky Clearness
  0,                                      ! Rain Indicator
  0,                                      ! Snow Indicator
  21,                                     ! Day of Month
  1,                                      ! Month
  WinterDesignDay,                        ! Day Type
  0,                                      ! Daylight Saving Time Indicator
  Dewpoint,                               ! Humidity Indicating Type
  ,                                       ! Humidity Indicating Day Schedule Name
  DefaultMultipliers,                     ! Dry-Bulb Temperature Range Modifier Type
  ,                                       ! Dry-Bulb Temperature Range Modifier Schedule Name
  ASHRAEClearSky;                         ! Solar Model Indicator

OS:ComponentData,
  {f0b3e39e-d1ca-4f00-8122-fc074c02af04}, ! Handle
  Component Data 1,                       ! Name
  {a24fac2f-857d-460b-a698-afd385b4e8cd}, ! UUID
  {9ed01425-63a7-45a1-8abf-c96ea1c314dd}, ! Version UUID
  1366308129,                             ! Creation Timestamp
  1366308129,                             ! Version Timestamp
  {a1e73c72-9a44-4e06-8c60-efa33e537ac1}; ! Name of Object 1

