
OS:Version,
  {9c65f03c-0743-44fd-b43e-58f35a65cda3}, ! Handle
  0.9.3;                                  ! Version Identifier

OS:SizingPeriod:DesignDay,
  {178f6f32-bba9-4bcd-b007-c9096d01e4a0}, ! Handle
  Middleton Island Aut Ann Htg 99.6% Condns DB, ! Name
  -7.2,                                   ! Maximum Dry-Bulb Temperature {C}
  0,                                      ! Daily Dry-Bulb Temperature Range {deltaC}
  -7.2,                                   ! Humidity Indicating Conditions at Maximum Dry-Bulb {BasedOnField A3}
  101157,                                 ! Barometric Pressure {Pa}
  7.1,                                    ! Wind Speed {m/s}
  30,                                     ! Wind Direction {deg}
  0,                                      ! Sky Clearness
  0,                                      ! Rain Indicator
  0,                                      ! Snow Indicator
  21,                                     ! Day of Month
  2,                                      ! Month
  WinterDesignDay,                        ! Day Type
  0,                                      ! Daylight Saving Time Indicator
  Wetbulb,                                ! Humidity Indicating Type
  ,                                       ! Humidity Indicating Day Schedule Name
  DefaultMultipliers,                     ! Dry-Bulb Temperature Range Modifier Type
  ,                                       ! Dry-Bulb Temperature Range Modifier Schedule Name
  ASHRAEClearSky;                         ! Solar Model Indicator

OS:ComponentData,
  {f53957bc-f4f0-492e-adb6-2bd1498ed939}, ! Handle
  Component Data 1,                       ! Name
  {3a30c783-b901-40e3-a4cf-643fad81c0b9}, ! UUID
  {7d02af2e-8517-4830-b5d3-e7bb5fb2edb9}, ! Version UUID
  1366305428,                             ! Creation Timestamp
  1366305428,                             ! Version Timestamp
  {178f6f32-bba9-4bcd-b007-c9096d01e4a0}; ! Name of Object 1

