
OS:Version,
  {73e26c30-652d-474a-90d0-247e42913be3}, ! Handle
  0.9.3;                                  ! Version Identifier

OS:SizingPeriod:DesignDay,
  {d8eea069-f52e-4b6d-8e40-84de67b06b80}, ! Handle
  SPOKANE Ann Clg .4% Condns DB=>MWB,     ! Name
  33,                                     ! Maximum Dry-Bulb Temperature {C}
  14.5,                                   ! Daily Dry-Bulb Temperature Range {deltaC}
  16.8,                                   ! Humidity Indicating Conditions at Maximum Dry-Bulb {BasedOnField A3}
  92958,                                  ! Barometric Pressure {Pa}
  3.4,                                    ! Wind Speed {m/s}
  240,                                    ! Wind Direction {deg}
  0,                                      ! Sky Clearness
  0,                                      ! Rain Indicator
  0,                                      ! Snow Indicator
  21,                                     ! Day of Month
  7,                                      ! Month
  SummerDesignDay,                        ! Day Type
  0,                                      ! Daylight Saving Time Indicator
  Wetbulb,                                ! Humidity Indicating Type
  ,                                       ! Humidity Indicating Day Schedule Name
  DefaultMultipliers,                     ! Dry-Bulb Temperature Range Modifier Type
  ,                                       ! Dry-Bulb Temperature Range Modifier Schedule Name
  ASHRAETau,                              ! Solar Model Indicator
  ,                                       ! Beam Solar Day Schedule Name
  ,                                       ! Diffuse Solar Day Schedule Name
  0.353,                                  ! ASHRAE Taub {dimensionless}
  2.387;                                  ! ASHRAE Taud {dimensionless}

OS:ComponentData,
  {23fd5fec-b8b9-4683-bc3f-7ac66fe7c015}, ! Handle
  Component Data 1,                       ! Name
  {631499cf-4495-4113-b9b9-b2a3afaef141}, ! UUID
  {e739e516-6784-4f76-b97e-538658f306e9}, ! Version UUID
  1366311384,                             ! Creation Timestamp
  1366311384,                             ! Version Timestamp
  {d8eea069-f52e-4b6d-8e40-84de67b06b80}; ! Name of Object 1

