
OS:Version,
  {e756197c-11b0-426c-bd1d-9410953cea0c}, ! Handle
  0.9.3;                                  ! Version Identifier

OS:SizingPeriod:DesignDay,
  {0461e131-5a58-4b36-999c-a2b514435f12}, ! Handle
  SPOKANE Ann Htg 99% Condns DB,          ! Name
  -11.9,                                  ! Maximum Dry-Bulb Temperature {C}
  0,                                      ! Daily Dry-Bulb Temperature Range {deltaC}
  -11.9,                                  ! Humidity Indicating Conditions at Maximum Dry-Bulb {BasedOnField A3}
  92958,                                  ! Barometric Pressure {Pa}
  3,                                      ! Wind Speed {m/s}
  20,                                     ! Wind Direction {deg}
  0,                                      ! Sky Clearness
  0,                                      ! Rain Indicator
  0,                                      ! Snow Indicator
  21,                                     ! Day of Month
  12,                                     ! Month
  WinterDesignDay,                        ! Day Type
  0,                                      ! Daylight Saving Time Indicator
  Wetbulb,                                ! Humidity Indicating Type
  ,                                       ! Humidity Indicating Day Schedule Name
  DefaultMultipliers,                     ! Dry-Bulb Temperature Range Modifier Type
  ,                                       ! Dry-Bulb Temperature Range Modifier Schedule Name
  ASHRAEClearSky;                         ! Solar Model Indicator

OS:ComponentData,
  {87c31387-966d-4f3c-a04b-6945faae8719}, ! Handle
  Component Data 1,                       ! Name
  {0abd6fb3-2847-4260-b84f-facd909d84be}, ! UUID
  {03342f91-4b04-4db5-b549-c8f96ae36ae1}, ! Version UUID
  1366311383,                             ! Creation Timestamp
  1366311383,                             ! Version Timestamp
  {0461e131-5a58-4b36-999c-a2b514435f12}; ! Name of Object 1

