
OS:Version,
  {bb020e14-111c-4b90-9395-e07d85fecd67}, ! Handle
  0.9.3;                                  ! Version Identifier

OS:SizingPeriod:DesignDay,
  {f8dd78cd-58de-41ba-9c0f-f342b6ea4ad5}, ! Handle
  Texarkana Webb Field Ann Clg 1% Condns WB=>MDB, ! Name
  32.3,                                   ! Maximum Dry-Bulb Temperature {C}
  10.7,                                   ! Daily Dry-Bulb Temperature Range {deltaC}
  26,                                     ! Humidity Indicating Conditions at Maximum Dry-Bulb {BasedOnField A3}
  100011,                                 ! Barometric Pressure {Pa}
  3.4,                                    ! Wind Speed {m/s}
  190,                                    ! Wind Direction {deg}
  0,                                      ! Sky Clearness
  0,                                      ! Rain Indicator
  0,                                      ! Snow Indicator
  21,                                     ! Day of Month
  7,                                      ! Month
  SummerDesignDay,                        ! Day Type
  0,                                      ! Daylight Saving Time Indicator
  Wetbulb,                                ! Humidity Indicating Type
  ,                                       ! Humidity Indicating Day Schedule Name
  DefaultMultipliers,                     ! Dry-Bulb Temperature Range Modifier Type
  ,                                       ! Dry-Bulb Temperature Range Modifier Schedule Name
  ASHRAETau,                              ! Solar Model Indicator
  ,                                       ! Beam Solar Day Schedule Name
  ,                                       ! Diffuse Solar Day Schedule Name
  0.486,                                  ! ASHRAE Taub {dimensionless}
  2.004;                                  ! ASHRAE Taud {dimensionless}

OS:ComponentData,
  {e5326bd3-b0ec-4654-a9a7-8b943e781fea}, ! Handle
  Component Data 1,                       ! Name
  {bf816dcd-e70e-4ea8-a9f8-12952ff2411f}, ! UUID
  {63add655-1f6a-4727-8702-b11694533079}, ! Version UUID
  1366306254,                             ! Creation Timestamp
  1366306254,                             ! Version Timestamp
  {f8dd78cd-58de-41ba-9c0f-f342b6ea4ad5}; ! Name of Object 1

