
OS:Version,
  {58b9dbf5-7731-4a55-b50a-ffa53bb66b79}, ! Handle
  0.9.3;                                  ! Version Identifier

OS:SizingPeriod:DesignDay,
  {3ba2bc4d-f350-40d2-b639-73379f0171d6}, ! Handle
  Syracuse Ann Clg 1% Condns DP=>MDB,     ! Name
  25.8,                                   ! Maximum Dry-Bulb Temperature {C}
  10.8,                                   ! Daily Dry-Bulb Temperature Range {deltaC}
  21.5,                                   ! Humidity Indicating Conditions at Maximum Dry-Bulb {BasedOnField A3}
  99844,                                  ! Barometric Pressure {Pa}
  4.4,                                    ! Wind Speed {m/s}
  260,                                    ! Wind Direction {deg}
  0,                                      ! Sky Clearness
  0,                                      ! Rain Indicator
  0,                                      ! Snow Indicator
  21,                                     ! Day of Month
  7,                                      ! Month
  SummerDesignDay,                        ! Day Type
  0,                                      ! Daylight Saving Time Indicator
  Dewpoint,                               ! Humidity Indicating Type
  ,                                       ! Humidity Indicating Day Schedule Name
  DefaultMultipliers,                     ! Dry-Bulb Temperature Range Modifier Type
  ,                                       ! Dry-Bulb Temperature Range Modifier Schedule Name
  ASHRAETau,                              ! Solar Model Indicator
  ,                                       ! Beam Solar Day Schedule Name
  ,                                       ! Diffuse Solar Day Schedule Name
  0.47,                                   ! ASHRAE Taub {dimensionless}
  1.975;                                  ! ASHRAE Taud {dimensionless}

OS:ComponentData,
  {6eecb72c-6459-4fb7-937b-d4a219548a92}, ! Handle
  Component Data 1,                       ! Name
  {381332da-006a-4d38-a33b-a5c7d8f79da8}, ! UUID
  {c6aac003-c6d5-412f-998b-635ccc94c263}, ! Version UUID
  1366309730,                             ! Creation Timestamp
  1366309730,                             ! Version Timestamp
  {3ba2bc4d-f350-40d2-b639-73379f0171d6}; ! Name of Object 1

