
OS:Version,
  {435b29b9-bac3-4580-8275-1eab6b2a4fe7}, ! Handle
  0.9.3;                                  ! Version Identifier

OS:SizingPeriod:DesignDay,
  {85a5d39b-0e80-4dca-89f1-dc1ffb968c36}, ! Handle
  New York City/La Guard Ann Clg 1% Condns WB=>MDB, ! Name
  29.2,                                   ! Maximum Dry-Bulb Temperature {C}
  7.7,                                    ! Daily Dry-Bulb Temperature Range {deltaC}
  24.4,                                   ! Humidity Indicating Conditions at Maximum Dry-Bulb {BasedOnField A3}
  101289,                                 ! Barometric Pressure {Pa}
  5.6,                                    ! Wind Speed {m/s}
  270,                                    ! Wind Direction {deg}
  0,                                      ! Sky Clearness
  0,                                      ! Rain Indicator
  0,                                      ! Snow Indicator
  21,                                     ! Day of Month
  7,                                      ! Month
  SummerDesignDay,                        ! Day Type
  0,                                      ! Daylight Saving Time Indicator
  Wetbulb,                                ! Humidity Indicating Type
  ,                                       ! Humidity Indicating Day Schedule Name
  DefaultMultipliers,                     ! Dry-Bulb Temperature Range Modifier Type
  ,                                       ! Dry-Bulb Temperature Range Modifier Schedule Name
  ASHRAETau,                              ! Solar Model Indicator
  ,                                       ! Beam Solar Day Schedule Name
  ,                                       ! Diffuse Solar Day Schedule Name
  0.532,                                  ! ASHRAE Taub {dimensionless}
  1.821;                                  ! ASHRAE Taud {dimensionless}

OS:ComponentData,
  {1fc806c3-0d73-49d0-a1a4-146c0d5576d1}, ! Handle
  Component Data 1,                       ! Name
  {6101e258-a3b5-41f2-8e01-574ccebe64fa}, ! UUID
  {133d49a1-a7a4-4958-82a8-75a2005e7311}, ! Version UUID
  1366309670,                             ! Creation Timestamp
  1366309670,                             ! Version Timestamp
  {85a5d39b-0e80-4dca-89f1-dc1ffb968c36}; ! Name of Object 1

