
OS:Version,
  {4f83beef-6ee1-43cb-87d2-8e4880ece387}, ! Handle
  0.9.3;                                  ! Version Identifier

OS:SizingPeriod:DesignDay,
  {f971400b-8ab9-4935-a4cb-c1d8bfdf5313}, ! Handle
  Salt Lake City Ann Clg 2% Condns Enth=>MDB, ! Name
  29.5,                                   ! Maximum Dry-Bulb Temperature {C}
  14.4,                                   ! Daily Dry-Bulb Temperature Range {deltaC}
  55800,                                  ! Humidity Indicating Conditions at Maximum Dry-Bulb {BasedOnField A3}
  86779,                                  ! Barometric Pressure {Pa}
  5.1,                                    ! Wind Speed {m/s}
  340,                                    ! Wind Direction {deg}
  0,                                      ! Sky Clearness
  0,                                      ! Rain Indicator
  0,                                      ! Snow Indicator
  21,                                     ! Day of Month
  7,                                      ! Month
  SummerDesignDay,                        ! Day Type
  0,                                      ! Daylight Saving Time Indicator
  Enthalpy,                               ! Humidity Indicating Type
  ,                                       ! Humidity Indicating Day Schedule Name
  DefaultMultipliers,                     ! Dry-Bulb Temperature Range Modifier Type
  ,                                       ! Dry-Bulb Temperature Range Modifier Schedule Name
  ASHRAETau,                              ! Solar Model Indicator
  ,                                       ! Beam Solar Day Schedule Name
  ,                                       ! Diffuse Solar Day Schedule Name
  0.44,                                   ! ASHRAE Taub {dimensionless}
  1.968;                                  ! ASHRAE Taud {dimensionless}

