
OS:Version,
  {90b0825c-d53f-4841-ac93-706aa0494a1d}, ! Handle
  0.9.3;                                  ! Version Identifier

OS:SizingPeriod:DesignDay,
  {d280db50-8b84-4ed6-b97e-98029168b472}, ! Handle
  Salisbury Wicomico Co Ap Ann Clg 2% Condns DP=>MDB, ! Name
  27.1,                                   ! Maximum Dry-Bulb Temperature {C}
  10.6,                                   ! Daily Dry-Bulb Temperature Range {deltaC}
  23.7,                                   ! Humidity Indicating Conditions at Maximum Dry-Bulb {BasedOnField A3}
  101145,                                 ! Barometric Pressure {Pa}
  4.4,                                    ! Wind Speed {m/s}
  240,                                    ! Wind Direction {deg}
  0,                                      ! Sky Clearness
  0,                                      ! Rain Indicator
  0,                                      ! Snow Indicator
  21,                                     ! Day of Month
  7,                                      ! Month
  SummerDesignDay,                        ! Day Type
  0,                                      ! Daylight Saving Time Indicator
  Dewpoint,                               ! Humidity Indicating Type
  ,                                       ! Humidity Indicating Day Schedule Name
  DefaultMultipliers,                     ! Dry-Bulb Temperature Range Modifier Type
  ,                                       ! Dry-Bulb Temperature Range Modifier Schedule Name
  ASHRAETau,                              ! Solar Model Indicator
  ,                                       ! Beam Solar Day Schedule Name
  ,                                       ! Diffuse Solar Day Schedule Name
  0.58,                                   ! ASHRAE Taub {dimensionless}
  1.711;                                  ! ASHRAE Taud {dimensionless}

OS:ComponentData,
  {c76e5dde-9fa8-49af-a0a1-eac8ae460a54}, ! Handle
  Component Data 1,                       ! Name
  {753ee32d-da5d-4bfc-9b6b-9b1902b5dc0e}, ! UUID
  {667207ab-3cd7-4c33-a816-ddfbe1b9e0ca}, ! Version UUID
  1366307862,                             ! Creation Timestamp
  1366307862,                             ! Version Timestamp
  {d280db50-8b84-4ed6-b97e-98029168b472}; ! Name of Object 1

