
OS:Version,
  {800f55b5-8b45-4b43-8686-7af247089781}, ! Handle
  0.9.3;                                  ! Version Identifier

OS:SizingPeriod:DesignDay,
  {07c2e849-bec0-4070-bd9f-11e6e54e6121}, ! Handle
  Whidbey Island NAS Ann Clg 2% Condns DP=>MDB, ! Name
  17.1,                                   ! Maximum Dry-Bulb Temperature {C}
  7.8,                                    ! Daily Dry-Bulb Temperature Range {deltaC}
  13.9,                                   ! Humidity Indicating Conditions at Maximum Dry-Bulb {BasedOnField A3}
  101205,                                 ! Barometric Pressure {Pa}
  3,                                      ! Wind Speed {m/s}
  260,                                    ! Wind Direction {deg}
  0,                                      ! Sky Clearness
  0,                                      ! Rain Indicator
  0,                                      ! Snow Indicator
  21,                                     ! Day of Month
  8,                                      ! Month
  SummerDesignDay,                        ! Day Type
  0,                                      ! Daylight Saving Time Indicator
  Dewpoint,                               ! Humidity Indicating Type
  ,                                       ! Humidity Indicating Day Schedule Name
  DefaultMultipliers,                     ! Dry-Bulb Temperature Range Modifier Type
  ,                                       ! Dry-Bulb Temperature Range Modifier Schedule Name
  ASHRAETau,                              ! Solar Model Indicator
  ,                                       ! Beam Solar Day Schedule Name
  ,                                       ! Diffuse Solar Day Schedule Name
  0.356,                                  ! ASHRAE Taub {dimensionless}
  2.524;                                  ! ASHRAE Taud {dimensionless}

OS:ComponentData,
  {de5446cc-45a5-46b7-b859-0856a82c3eb8}, ! Handle
  Component Data 1,                       ! Name
  {3559fceb-9ada-47c7-82b3-58a153995165}, ! UUID
  {77d10d6a-75d4-4f3c-8216-c5fbce3d4399}, ! Version UUID
  1366311433,                             ! Creation Timestamp
  1366311433,                             ! Version Timestamp
  {07c2e849-bec0-4070-bd9f-11e6e54e6121}; ! Name of Object 1

