
OS:Version,
  {08a0f9a6-83e2-40c9-b25e-1421e9637e4a}, ! Handle
  0.9.3;                                  ! Version Identifier

OS:SizingPeriod:DesignDay,
  {a0284b9f-ee1f-41ab-b466-1116ee62aad3}, ! Handle
  PENDLETON Ann Clg 2% Condns DP=>MDB,    ! Name
  21.6,                                   ! Maximum Dry-Bulb Temperature {C}
  15.8,                                   ! Daily Dry-Bulb Temperature Range {deltaC}
  12.2,                                   ! Humidity Indicating Conditions at Maximum Dry-Bulb {BasedOnField A3}
  95966,                                  ! Barometric Pressure {Pa}
  4.1,                                    ! Wind Speed {m/s}
  300,                                    ! Wind Direction {deg}
  0,                                      ! Sky Clearness
  0,                                      ! Rain Indicator
  0,                                      ! Snow Indicator
  21,                                     ! Day of Month
  7,                                      ! Month
  SummerDesignDay,                        ! Day Type
  0,                                      ! Daylight Saving Time Indicator
  Dewpoint,                               ! Humidity Indicating Type
  ,                                       ! Humidity Indicating Day Schedule Name
  DefaultMultipliers,                     ! Dry-Bulb Temperature Range Modifier Type
  ,                                       ! Dry-Bulb Temperature Range Modifier Schedule Name
  ASHRAETau,                              ! Solar Model Indicator
  ,                                       ! Beam Solar Day Schedule Name
  ,                                       ! Diffuse Solar Day Schedule Name
  0.384,                                  ! ASHRAE Taub {dimensionless}
  2.273;                                  ! ASHRAE Taud {dimensionless}

OS:ComponentData,
  {b548c17e-91e1-46f7-8f9e-9fc34bf7f48f}, ! Handle
  Component Data 1,                       ! Name
  {6b084a23-a8c2-4ab8-bfab-c220dd6d7518}, ! UUID
  {52f12aed-2758-4a1b-8e8e-9946e97b1cab}, ! Version UUID
  1366310064,                             ! Creation Timestamp
  1366310064,                             ! Version Timestamp
  {a0284b9f-ee1f-41ab-b466-1116ee62aad3}; ! Name of Object 1

