
OS:Version,
  {3161983f-ba33-48bb-8ab4-dd67c90a3120}, ! Handle
  0.9.3;                                  ! Version Identifier

OS:SizingPeriod:DesignDay,
  {f6477a36-6e45-4d98-ac56-8d33809ab86d}, ! Handle
  Pensacola Forest Sherman Nas Ann Htg Wind 99% Condns WS=>MCDB, ! Name
  8.8,                                    ! Maximum Dry-Bulb Temperature {C}
  0,                                      ! Daily Dry-Bulb Temperature Range {deltaC}
  8.8,                                    ! Humidity Indicating Conditions at Maximum Dry-Bulb {BasedOnField A3}
  101205,                                 ! Barometric Pressure {Pa}
  11.1,                                   ! Wind Speed {m/s}
  0,                                      ! Wind Direction {deg}
  0,                                      ! Sky Clearness
  0,                                      ! Rain Indicator
  0,                                      ! Snow Indicator
  21,                                     ! Day of Month
  1,                                      ! Month
  WinterDesignDay,                        ! Day Type
  0,                                      ! Daylight Saving Time Indicator
  Wetbulb,                                ! Humidity Indicating Type
  ,                                       ! Humidity Indicating Day Schedule Name
  DefaultMultipliers,                     ! Dry-Bulb Temperature Range Modifier Type
  ,                                       ! Dry-Bulb Temperature Range Modifier Schedule Name
  ASHRAEClearSky;                         ! Solar Model Indicator

OS:ComponentData,
  {140aabd2-55e2-4b2f-ac5e-be91a16136ed}, ! Handle
  Component Data 1,                       ! Name
  {25605972-3d90-4562-826f-5023e4d89eca}, ! UUID
  {fab91644-6ce1-421a-b276-2aae1188d2cd}, ! Version UUID
  1366306901,                             ! Creation Timestamp
  1366306901,                             ! Version Timestamp
  {f6477a36-6e45-4d98-ac56-8d33809ab86d}; ! Name of Object 1

