
OS:Version,
  {f383a90e-1d2d-4978-8916-6a34732924bd}, ! Handle
  0.9.3;                                  ! Version Identifier

OS:SizingPeriod:DesignDay,
  {5e5e3fa1-3825-40ce-a307-f6c9e85fed2b}, ! Handle
  Massena Ap Ann Clg 2% Condns DP=>MDB,   ! Name
  24.7,                                   ! Maximum Dry-Bulb Temperature {C}
  11.7,                                   ! Daily Dry-Bulb Temperature Range {deltaC}
  20.4,                                   ! Humidity Indicating Conditions at Maximum Dry-Bulb {BasedOnField A3}
  100547,                                 ! Barometric Pressure {Pa}
  4.7,                                    ! Wind Speed {m/s}
  240,                                    ! Wind Direction {deg}
  0,                                      ! Sky Clearness
  0,                                      ! Rain Indicator
  0,                                      ! Snow Indicator
  21,                                     ! Day of Month
  7,                                      ! Month
  SummerDesignDay,                        ! Day Type
  0,                                      ! Daylight Saving Time Indicator
  Dewpoint,                               ! Humidity Indicating Type
  ,                                       ! Humidity Indicating Day Schedule Name
  DefaultMultipliers,                     ! Dry-Bulb Temperature Range Modifier Type
  ,                                       ! Dry-Bulb Temperature Range Modifier Schedule Name
  ASHRAETau,                              ! Solar Model Indicator
  ,                                       ! Beam Solar Day Schedule Name
  ,                                       ! Diffuse Solar Day Schedule Name
  0.454,                                  ! ASHRAE Taub {dimensionless}
  2.024;                                  ! ASHRAE Taud {dimensionless}

OS:ComponentData,
  {0eae1e25-9315-4165-8d5e-f76e4f0c0f75}, ! Handle
  Component Data 1,                       ! Name
  {0efbd1e1-f8c5-42ad-b496-c4b1c6d59ba9}, ! UUID
  {69ccf51e-05c2-4ef7-a343-a8da90d5eae7}, ! Version UUID
  1366309656,                             ! Creation Timestamp
  1366309656,                             ! Version Timestamp
  {5e5e3fa1-3825-40ce-a307-f6c9e85fed2b}; ! Name of Object 1

