
OS:Version,
  {0aec5423-8de0-4e0a-8276-41627815c075}, ! Handle
  0.9.3;                                  ! Version Identifier

OS:SizingPeriod:DesignDay,
  {c49ff32e-c158-4be0-85fe-381832780393}, ! Handle
  SPRINGFIELD Ann Hum_n 99% Condns DP=>MCDB, ! Name
  -10.2,                                  ! Maximum Dry-Bulb Temperature {C}
  0,                                      ! Daily Dry-Bulb Temperature Range {deltaC}
  -16.8,                                  ! Humidity Indicating Conditions at Maximum Dry-Bulb {BasedOnField A3}
  96761,                                  ! Barometric Pressure {Pa}
  3.8,                                    ! Wind Speed {m/s}
  350,                                    ! Wind Direction {deg}
  0,                                      ! Sky Clearness
  0,                                      ! Rain Indicator
  0,                                      ! Snow Indicator
  21,                                     ! Day of Month
  1,                                      ! Month
  WinterDesignDay,                        ! Day Type
  0,                                      ! Daylight Saving Time Indicator
  Dewpoint,                               ! Humidity Indicating Type
  ,                                       ! Humidity Indicating Day Schedule Name
  DefaultMultipliers,                     ! Dry-Bulb Temperature Range Modifier Type
  ,                                       ! Dry-Bulb Temperature Range Modifier Schedule Name
  ASHRAEClearSky;                         ! Solar Model Indicator

OS:ComponentData,
  {9b2ab794-9ea7-4f3b-b4c9-13bd7d950575}, ! Handle
  Component Data 1,                       ! Name
  {6698ceb9-73cd-4f8c-93af-ebd22dfbb15d}, ! UUID
  {6ac9e1f5-1d58-47fb-92c0-c79bc0c8b9a2}, ! Version UUID
  1366308559,                             ! Creation Timestamp
  1366308559,                             ! Version Timestamp
  {c49ff32e-c158-4be0-85fe-381832780393}; ! Name of Object 1

