
OS:Version,
  {cd0ca931-6b26-482e-8a01-990f01bc8023}, ! Handle
  0.9.3;                                  ! Version Identifier

OS:SizingPeriod:DesignDay,
  {14c25e38-be21-469e-a3dc-3070e4c33238}, ! Handle
  Sherman-Denison Ann Clg 2% Condns DP=>MDB, ! Name
  27.6,                                   ! Maximum Dry-Bulb Temperature {C}
  13.1,                                   ! Daily Dry-Bulb Temperature Range {deltaC}
  22.9,                                   ! Humidity Indicating Conditions at Maximum Dry-Bulb {BasedOnField A3}
  98557,                                  ! Barometric Pressure {Pa}
  4,                                      ! Wind Speed {m/s}
  130,                                    ! Wind Direction {deg}
  0,                                      ! Sky Clearness
  0,                                      ! Rain Indicator
  0,                                      ! Snow Indicator
  21,                                     ! Day of Month
  8,                                      ! Month
  SummerDesignDay,                        ! Day Type
  0,                                      ! Daylight Saving Time Indicator
  Dewpoint,                               ! Humidity Indicating Type
  ,                                       ! Humidity Indicating Day Schedule Name
  DefaultMultipliers,                     ! Dry-Bulb Temperature Range Modifier Type
  ,                                       ! Dry-Bulb Temperature Range Modifier Schedule Name
  ASHRAETau,                              ! Solar Model Indicator
  ,                                       ! Beam Solar Day Schedule Name
  ,                                       ! Diffuse Solar Day Schedule Name
  0.477,                                  ! ASHRAE Taub {dimensionless}
  2.02;                                   ! ASHRAE Taud {dimensionless}

OS:ComponentData,
  {986e14fb-dd80-4093-915a-16d720833fd1}, ! Handle
  Component Data 1,                       ! Name
  {866ba200-6113-48cf-8334-901f1af4857d}, ! UUID
  {a0e9d8fd-cca4-4cca-a207-0771bdb75cf8}, ! Version UUID
  1366310904,                             ! Creation Timestamp
  1366310904,                             ! Version Timestamp
  {14c25e38-be21-469e-a3dc-3070e4c33238}; ! Name of Object 1

