
OS:Version,
  {a936a092-1755-4e64-9ccc-d135df46e168}, ! Handle
  0.9.3;                                  ! Version Identifier

OS:SizingPeriod:DesignDay,
  {c6d92dae-2e86-496a-8d78-33e1871330f0}, ! Handle
  Middletown Harrisburg Intl Ap Ann Clg 2% Condns DP=>MDB, ! Name
  26.6,                                   ! Maximum Dry-Bulb Temperature {C}
  9.6,                                    ! Daily Dry-Bulb Temperature Range {deltaC}
  22.4,                                   ! Humidity Indicating Conditions at Maximum Dry-Bulb {BasedOnField A3}
  100225,                                 ! Barometric Pressure {Pa}
  4.4,                                    ! Wind Speed {m/s}
  300,                                    ! Wind Direction {deg}
  0,                                      ! Sky Clearness
  0,                                      ! Rain Indicator
  0,                                      ! Snow Indicator
  21,                                     ! Day of Month
  7,                                      ! Month
  SummerDesignDay,                        ! Day Type
  0,                                      ! Daylight Saving Time Indicator
  Dewpoint,                               ! Humidity Indicating Type
  ,                                       ! Humidity Indicating Day Schedule Name
  DefaultMultipliers,                     ! Dry-Bulb Temperature Range Modifier Type
  ,                                       ! Dry-Bulb Temperature Range Modifier Schedule Name
  ASHRAETau,                              ! Solar Model Indicator
  ,                                       ! Beam Solar Day Schedule Name
  ,                                       ! Diffuse Solar Day Schedule Name
  0.521,                                  ! ASHRAE Taub {dimensionless}
  1.834;                                  ! ASHRAE Taud {dimensionless}

