
OS:Version,
  {11baf6cd-59ff-435d-921d-931954698394}, ! Handle
  0.9.3;                                  ! Version Identifier

OS:SizingPeriod:DesignDay,
  {94bbe243-51bd-4520-bdf2-22e95ce2f0a6}, ! Handle
  PRESCOTT Ann Htg 99% Condns DB,         ! Name
  -6.3,                                   ! Maximum Dry-Bulb Temperature {C}
  0,                                      ! Daily Dry-Bulb Temperature Range {deltaC}
  -6.3,                                   ! Humidity Indicating Conditions at Maximum Dry-Bulb {BasedOnField A3}
  84235,                                  ! Barometric Pressure {Pa}
  2.3,                                    ! Wind Speed {m/s}
  200,                                    ! Wind Direction {deg}
  0,                                      ! Sky Clearness
  0,                                      ! Rain Indicator
  0,                                      ! Snow Indicator
  21,                                     ! Day of Month
  12,                                     ! Month
  WinterDesignDay,                        ! Day Type
  0,                                      ! Daylight Saving Time Indicator
  Wetbulb,                                ! Humidity Indicating Type
  ,                                       ! Humidity Indicating Day Schedule Name
  DefaultMultipliers,                     ! Dry-Bulb Temperature Range Modifier Type
  ,                                       ! Dry-Bulb Temperature Range Modifier Schedule Name
  ASHRAEClearSky;                         ! Solar Model Indicator

OS:ComponentData,
  {5a14590d-e8e6-4078-9490-f38bfd86ba59}, ! Handle
  Component Data 1,                       ! Name
  {29f481c0-8684-448d-b284-999c4c518b62}, ! UUID
  {a2488f4d-2fd3-4dc7-9dcb-1efda36461f7}, ! Version UUID
  1366306306,                             ! Creation Timestamp
  1366306306,                             ! Version Timestamp
  {94bbe243-51bd-4520-bdf2-22e95ce2f0a6}; ! Name of Object 1

