
OS:Version,
  {c17fac37-01bd-45d1-8127-2d065f956529}, ! Handle
  0.9.3;                                  ! Version Identifier

OS:SizingPeriod:DesignDay,
  {af2291f4-cb2a-44f3-804d-ae9bd47e5e0f}, ! Handle
  Meridian Naas Ann Hum_n 99% Condns DP=>MCDB, ! Name
  0.5,                                    ! Maximum Dry-Bulb Temperature {C}
  0,                                      ! Daily Dry-Bulb Temperature Range {deltaC}
  -10.5,                                  ! Humidity Indicating Conditions at Maximum Dry-Bulb {BasedOnField A3}
  100332,                                 ! Barometric Pressure {Pa}
  1.8,                                    ! Wind Speed {m/s}
  330,                                    ! Wind Direction {deg}
  0,                                      ! Sky Clearness
  0,                                      ! Rain Indicator
  0,                                      ! Snow Indicator
  21,                                     ! Day of Month
  1,                                      ! Month
  WinterDesignDay,                        ! Day Type
  0,                                      ! Daylight Saving Time Indicator
  Dewpoint,                               ! Humidity Indicating Type
  ,                                       ! Humidity Indicating Day Schedule Name
  DefaultMultipliers,                     ! Dry-Bulb Temperature Range Modifier Type
  ,                                       ! Dry-Bulb Temperature Range Modifier Schedule Name
  ASHRAEClearSky;                         ! Solar Model Indicator

OS:ComponentData,
  {38c543f1-4a0e-46ac-8d53-7fad32a8c3db}, ! Handle
  Component Data 1,                       ! Name
  {b3b79836-fb27-4170-93ea-1d999c51c94a}, ! UUID
  {0448cf83-3afb-45a8-a19b-be2b2238f25f}, ! Version UUID
  1366308679,                             ! Creation Timestamp
  1366308679,                             ! Version Timestamp
  {af2291f4-cb2a-44f3-804d-ae9bd47e5e0f}; ! Name of Object 1

