
OS:Version,
  {af2b2d40-3efa-482f-8016-0c3ddffac5d5}, ! Handle
  0.9.3;                                  ! Version Identifier

OS:SizingPeriod:DesignDay,
  {48c3be81-d262-4800-982d-10d47ca278cc}, ! Handle
  WILLIAMSPORT Ann Clg 2% Condns DP=>MDB, ! Name
  25,                                     ! Maximum Dry-Bulb Temperature {C}
  11.6,                                   ! Daily Dry-Bulb Temperature Range {deltaC}
  21.2,                                   ! Humidity Indicating Conditions at Maximum Dry-Bulb {BasedOnField A3}
  98440,                                  ! Barometric Pressure {Pa}
  4.2,                                    ! Wind Speed {m/s}
  260,                                    ! Wind Direction {deg}
  0,                                      ! Sky Clearness
  0,                                      ! Rain Indicator
  0,                                      ! Snow Indicator
  21,                                     ! Day of Month
  7,                                      ! Month
  SummerDesignDay,                        ! Day Type
  0,                                      ! Daylight Saving Time Indicator
  Dewpoint,                               ! Humidity Indicating Type
  ,                                       ! Humidity Indicating Day Schedule Name
  DefaultMultipliers,                     ! Dry-Bulb Temperature Range Modifier Type
  ,                                       ! Dry-Bulb Temperature Range Modifier Schedule Name
  ASHRAETau,                              ! Solar Model Indicator
  ,                                       ! Beam Solar Day Schedule Name
  ,                                       ! Diffuse Solar Day Schedule Name
  0.499,                                  ! ASHRAE Taub {dimensionless}
  1.884;                                  ! ASHRAE Taud {dimensionless}

OS:ComponentData,
  {cc8ff6fc-9c94-47ca-b482-db8a9ebbae22}, ! Handle
  Component Data 1,                       ! Name
  {6b9cec23-557a-4a63-87c1-09a49d670766}, ! UUID
  {0b6fe3c6-478d-4167-8e33-56aff0d59c0e}, ! Version UUID
  1366310276,                             ! Creation Timestamp
  1366310276,                             ! Version Timestamp
  {48c3be81-d262-4800-982d-10d47ca278cc}; ! Name of Object 1

