
OS:Version,
  {67f84df7-71e3-4f6b-a6f4-e8e165044c10}, ! Handle
  0.9.3;                                  ! Version Identifier

OS:SizingPeriod:DesignDay,
  {47c61220-e3c2-4ac2-ab5a-063af16c8460}, ! Handle
  Storm Lake Ann Htg Wind 99.6% Condns WS=>MCDB, ! Name
  -13.2,                                  ! Maximum Dry-Bulb Temperature {C}
  0,                                      ! Daily Dry-Bulb Temperature Range {deltaC}
  -13.2,                                  ! Humidity Indicating Conditions at Maximum Dry-Bulb {BasedOnField A3}
  95989,                                  ! Barometric Pressure {Pa}
  15.7,                                   ! Wind Speed {m/s}
  310,                                    ! Wind Direction {deg}
  0,                                      ! Sky Clearness
  0,                                      ! Rain Indicator
  0,                                      ! Snow Indicator
  21,                                     ! Day of Month
  1,                                      ! Month
  WinterDesignDay,                        ! Day Type
  0,                                      ! Daylight Saving Time Indicator
  Wetbulb,                                ! Humidity Indicating Type
  ,                                       ! Humidity Indicating Day Schedule Name
  DefaultMultipliers,                     ! Dry-Bulb Temperature Range Modifier Type
  ,                                       ! Dry-Bulb Temperature Range Modifier Schedule Name
  ASHRAEClearSky;                         ! Solar Model Indicator

OS:ComponentData,
  {24b4db08-d040-4464-993d-6eec6b1a1d9b}, ! Handle
  Component Data 1,                       ! Name
  {883840fc-ffed-451b-9516-551d85c96192}, ! UUID
  {07d462d5-d57b-4c28-b437-eac4ad94ba49}, ! Version UUID
  1366307244,                             ! Creation Timestamp
  1366307244,                             ! Version Timestamp
  {47c61220-e3c2-4ac2-ab5a-063af16c8460}; ! Name of Object 1

