
OS:Version,
  {0121d00c-75a3-4907-9780-8b2f26591bb2}, ! Handle
  0.9.3;                                  ! Version Identifier

OS:SizingPeriod:DesignDay,
  {0a1ec302-7ddf-4287-9146-e39bfdf4bfc4}, ! Handle
  YAKIMA Ann Htg 99.6% Condns DB,         ! Name
  -14.3,                                  ! Maximum Dry-Bulb Temperature {C}
  0,                                      ! Daily Dry-Bulb Temperature Range {deltaC}
  -14.3,                                  ! Humidity Indicating Conditions at Maximum Dry-Bulb {BasedOnField A3}
  97481,                                  ! Barometric Pressure {Pa}
  2.4,                                    ! Wind Speed {m/s}
  280,                                    ! Wind Direction {deg}
  0,                                      ! Sky Clearness
  0,                                      ! Rain Indicator
  0,                                      ! Snow Indicator
  21,                                     ! Day of Month
  12,                                     ! Month
  WinterDesignDay,                        ! Day Type
  0,                                      ! Daylight Saving Time Indicator
  Wetbulb,                                ! Humidity Indicating Type
  ,                                       ! Humidity Indicating Day Schedule Name
  DefaultMultipliers,                     ! Dry-Bulb Temperature Range Modifier Type
  ,                                       ! Dry-Bulb Temperature Range Modifier Schedule Name
  ASHRAEClearSky;                         ! Solar Model Indicator

OS:ComponentData,
  {26bd0acd-5a02-4d38-a1ae-31e2c459aec8}, ! Handle
  Component Data 1,                       ! Name
  {b33a99ba-f861-4908-8098-c849e0870440}, ! UUID
  {1eab2e7c-965c-4020-ad4c-c6976f6b4bde}, ! Version UUID
  1366311440,                             ! Creation Timestamp
  1366311440,                             ! Version Timestamp
  {0a1ec302-7ddf-4287-9146-e39bfdf4bfc4}; ! Name of Object 1

