
OS:Version,
  {cd43f132-1581-420c-b66b-3d3cf304a30e}, ! Handle
  0.9.3;                                  ! Version Identifier

OS:SizingPeriod:DesignDay,
  {0166d481-4331-47c0-b606-1d938cab5e0d}, ! Handle
  New Orleans/Lakefront Ann Clg .4% Condns Enth=>MDB, ! Name
  31.6,                                   ! Maximum Dry-Bulb Temperature {C}
  8.5,                                    ! Daily Dry-Bulb Temperature Range {deltaC}
  85000,                                  ! Humidity Indicating Conditions at Maximum Dry-Bulb {BasedOnField A3}
  101289,                                 ! Barometric Pressure {Pa}
  3.4,                                    ! Wind Speed {m/s}
  0,                                      ! Wind Direction {deg}
  0,                                      ! Sky Clearness
  0,                                      ! Rain Indicator
  0,                                      ! Snow Indicator
  21,                                     ! Day of Month
  8,                                      ! Month
  SummerDesignDay,                        ! Day Type
  0,                                      ! Daylight Saving Time Indicator
  Enthalpy,                               ! Humidity Indicating Type
  ,                                       ! Humidity Indicating Day Schedule Name
  DefaultMultipliers,                     ! Dry-Bulb Temperature Range Modifier Type
  ,                                       ! Dry-Bulb Temperature Range Modifier Schedule Name
  ASHRAETau,                              ! Solar Model Indicator
  ,                                       ! Beam Solar Day Schedule Name
  ,                                       ! Diffuse Solar Day Schedule Name
  0.553,                                  ! ASHRAE Taub {dimensionless}
  1.821;                                  ! ASHRAE Taud {dimensionless}

OS:ComponentData,
  {25da1c13-a29b-4b8f-8e79-871f40f9e397}, ! Handle
  Component Data 1,                       ! Name
  {bec2e6cb-e1de-4448-8c56-0b9d0e01d0aa}, ! UUID
  {cbe74c8f-5873-4dbd-b93d-0e82d66c397c}, ! Version UUID
  1366307752,                             ! Creation Timestamp
  1366307752,                             ! Version Timestamp
  {0166d481-4331-47c0-b606-1d938cab5e0d}; ! Name of Object 1

