
OS:Version,
  {29544d64-a9ec-4ac0-8021-2f83f7328a30}, ! Handle
  0.9.3;                                  ! Version Identifier

OS:SizingPeriod:DesignDay,
  {b27ab42f-d6f1-45f5-9681-bd9250fc5dda}, ! Handle
  Pawtucket  Awos Ann Hum_n 99% Condns DP=>MCDB, ! Name
  -11.1,                                  ! Maximum Dry-Bulb Temperature {C}
  0,                                      ! Daily Dry-Bulb Temperature Range {deltaC}
  -22.4,                                  ! Humidity Indicating Conditions at Maximum Dry-Bulb {BasedOnField A3}
  99726,                                  ! Barometric Pressure {Pa}
  3.9,                                    ! Wind Speed {m/s}
  300,                                    ! Wind Direction {deg}
  0,                                      ! Sky Clearness
  0,                                      ! Rain Indicator
  0,                                      ! Snow Indicator
  21,                                     ! Day of Month
  1,                                      ! Month
  WinterDesignDay,                        ! Day Type
  0,                                      ! Daylight Saving Time Indicator
  Dewpoint,                               ! Humidity Indicating Type
  ,                                       ! Humidity Indicating Day Schedule Name
  DefaultMultipliers,                     ! Dry-Bulb Temperature Range Modifier Type
  ,                                       ! Dry-Bulb Temperature Range Modifier Schedule Name
  ASHRAEClearSky;                         ! Solar Model Indicator

OS:ComponentData,
  {123f35b8-50fe-48f6-a269-839cebbfb231}, ! Handle
  Component Data 1,                       ! Name
  {f6ec8941-da00-4feb-8e62-bbce9673af6a}, ! UUID
  {10325327-baf5-46a9-9c8e-f4c7d4d938e9}, ! Version UUID
  1366310293,                             ! Creation Timestamp
  1366310293,                             ! Version Timestamp
  {b27ab42f-d6f1-45f5-9681-bd9250fc5dda}; ! Name of Object 1

