
OS:Version,
  {4a62de69-e828-457a-b966-2a456d62ee27}, ! Handle
  0.9.3;                                  ! Version Identifier

OS:SizingPeriod:DesignDay,
  {8d2bfc8a-a87a-4582-8a75-1add856ab405}, ! Handle
  Naples Municipal Ann Clg 2% Condns Enth=>MDB, ! Name
  30.3,                                   ! Maximum Dry-Bulb Temperature {C}
  7.8,                                    ! Daily Dry-Bulb Temperature Range {deltaC}
  80500,                                  ! Humidity Indicating Conditions at Maximum Dry-Bulb {BasedOnField A3}
  101289,                                 ! Barometric Pressure {Pa}
  4.2,                                    ! Wind Speed {m/s}
  50,                                     ! Wind Direction {deg}
  0,                                      ! Sky Clearness
  0,                                      ! Rain Indicator
  0,                                      ! Snow Indicator
  21,                                     ! Day of Month
  7,                                      ! Month
  SummerDesignDay,                        ! Day Type
  0,                                      ! Daylight Saving Time Indicator
  Enthalpy,                               ! Humidity Indicating Type
  ,                                       ! Humidity Indicating Day Schedule Name
  DefaultMultipliers,                     ! Dry-Bulb Temperature Range Modifier Type
  ,                                       ! Dry-Bulb Temperature Range Modifier Schedule Name
  ASHRAETau,                              ! Solar Model Indicator
  ,                                       ! Beam Solar Day Schedule Name
  ,                                       ! Diffuse Solar Day Schedule Name
  0.499,                                  ! ASHRAE Taub {dimensionless}
  1.998;                                  ! ASHRAE Taud {dimensionless}

OS:ComponentData,
  {6528fff6-760e-4909-9e1c-0248c38f6511}, ! Handle
  Component Data 1,                       ! Name
  {df379230-b366-4271-8287-a3890c22cfb4}, ! UUID
  {2eef0a23-6ede-4261-9193-3784ab4483db}, ! Version UUID
  1366306871,                             ! Creation Timestamp
  1366306871,                             ! Version Timestamp
  {8d2bfc8a-a87a-4582-8a75-1add856ab405}; ! Name of Object 1

