
OS:Version,
  {06ad25d0-eefa-48d2-8eb6-e1f3b4cde0ae}, ! Handle
  0.9.3;                                  ! Version Identifier

OS:SizingPeriod:DesignDay,
  {e9d8f23d-adb9-4e0e-b35d-da2e2935a10a}, ! Handle
  Raleigh Durham International Ann Clg .4% Condns Enth=>MDB, ! Name
  31.8,                                   ! Maximum Dry-Bulb Temperature {C}
  10.5,                                   ! Daily Dry-Bulb Temperature Range {deltaC}
  79600,                                  ! Humidity Indicating Conditions at Maximum Dry-Bulb {BasedOnField A3}
  99809,                                  ! Barometric Pressure {Pa}
  4,                                      ! Wind Speed {m/s}
  240,                                    ! Wind Direction {deg}
  0,                                      ! Sky Clearness
  0,                                      ! Rain Indicator
  0,                                      ! Snow Indicator
  21,                                     ! Day of Month
  7,                                      ! Month
  SummerDesignDay,                        ! Day Type
  0,                                      ! Daylight Saving Time Indicator
  Enthalpy,                               ! Humidity Indicating Type
  ,                                       ! Humidity Indicating Day Schedule Name
  DefaultMultipliers,                     ! Dry-Bulb Temperature Range Modifier Type
  ,                                       ! Dry-Bulb Temperature Range Modifier Schedule Name
  ASHRAETau,                              ! Solar Model Indicator
  ,                                       ! Beam Solar Day Schedule Name
  ,                                       ! Diffuse Solar Day Schedule Name
  0.577,                                  ! ASHRAE Taub {dimensionless}
  1.722;                                  ! ASHRAE Taud {dimensionless}

OS:ComponentData,
  {bbff5a64-2186-4dd4-8e08-9df05ca945d1}, ! Handle
  Component Data 1,                       ! Name
  {6b2d6684-51fe-43df-9142-9ea455133a14}, ! UUID
  {c1038a1b-c4a7-4c45-a082-cc27d08ba18e}, ! Version UUID
  1366308974,                             ! Creation Timestamp
  1366308974,                             ! Version Timestamp
  {e9d8f23d-adb9-4e0e-b35d-da2e2935a10a}; ! Name of Object 1

