
OS:Version,
  {93f9bac3-2b7d-48f1-a703-14b71c37311a}, ! Handle
  0.9.3;                                  ! Version Identifier

OS:SizingPeriod:DesignDay,
  {a1e9dda5-98e1-4777-a471-671570f06294}, ! Handle
  PIERRE Ann Clg 1% Condns DB=>MWB,       ! Name
  35,                                     ! Maximum Dry-Bulb Temperature {C}
  14.3,                                   ! Daily Dry-Bulb Temperature Range {deltaC}
  21.4,                                   ! Humidity Indicating Conditions at Maximum Dry-Bulb {BasedOnField A3}
  95164,                                  ! Barometric Pressure {Pa}
  6.2,                                    ! Wind Speed {m/s}
  170,                                    ! Wind Direction {deg}
  0,                                      ! Sky Clearness
  0,                                      ! Rain Indicator
  0,                                      ! Snow Indicator
  21,                                     ! Day of Month
  7,                                      ! Month
  SummerDesignDay,                        ! Day Type
  0,                                      ! Daylight Saving Time Indicator
  Wetbulb,                                ! Humidity Indicating Type
  ,                                       ! Humidity Indicating Day Schedule Name
  DefaultMultipliers,                     ! Dry-Bulb Temperature Range Modifier Type
  ,                                       ! Dry-Bulb Temperature Range Modifier Schedule Name
  ASHRAETau,                              ! Solar Model Indicator
  ,                                       ! Beam Solar Day Schedule Name
  ,                                       ! Diffuse Solar Day Schedule Name
  0.427,                                  ! ASHRAE Taub {dimensionless}
  2.103;                                  ! ASHRAE Taud {dimensionless}

OS:ComponentData,
  {f9503e18-7570-4892-83d1-3ae287716e79}, ! Handle
  Component Data 1,                       ! Name
  {08557bea-3a1d-4815-bb86-45844fbee566}, ! UUID
  {5c97bbb6-443d-4b9a-9865-b86a3e951d8a}, ! Version UUID
  1366310426,                             ! Creation Timestamp
  1366310426,                             ! Version Timestamp
  {a1e9dda5-98e1-4777-a471-671570f06294}; ! Name of Object 1

