
OS:Version,
  {b8492b90-0c1b-4ed6-9c97-aefe266431e4}, ! Handle
  0.9.3;                                  ! Version Identifier

OS:SizingPeriod:DesignDay,
  {252272b2-aef2-4412-8716-cd151fd34a89}, ! Handle
  Olympia Airport Ann Hum_n 99% Condns DP=>MCDB, ! Name
  -2.1,                                   ! Maximum Dry-Bulb Temperature {C}
  0,                                      ! Daily Dry-Bulb Temperature Range {deltaC}
  -7.4,                                   ! Humidity Indicating Conditions at Maximum Dry-Bulb {BasedOnField A3}
  100570,                                 ! Barometric Pressure {Pa}
  1.6,                                    ! Wind Speed {m/s}
  40,                                     ! Wind Direction {deg}
  0,                                      ! Sky Clearness
  0,                                      ! Rain Indicator
  0,                                      ! Snow Indicator
  21,                                     ! Day of Month
  12,                                     ! Month
  WinterDesignDay,                        ! Day Type
  0,                                      ! Daylight Saving Time Indicator
  Dewpoint,                               ! Humidity Indicating Type
  ,                                       ! Humidity Indicating Day Schedule Name
  DefaultMultipliers,                     ! Dry-Bulb Temperature Range Modifier Type
  ,                                       ! Dry-Bulb Temperature Range Modifier Schedule Name
  ASHRAEClearSky;                         ! Solar Model Indicator

OS:ComponentData,
  {371bb5a6-93d2-4ad3-8a15-b4631d8c1a85}, ! Handle
  Component Data 1,                       ! Name
  {36aee41b-4911-4459-bcf8-148aa673c24e}, ! UUID
  {cddc8c4e-ed59-42b4-a10b-a08599dccc06}, ! Version UUID
  1366311314,                             ! Creation Timestamp
  1366311314,                             ! Version Timestamp
  {252272b2-aef2-4412-8716-cd151fd34a89}; ! Name of Object 1

