
OS:Version,
  {7ad139f6-685e-4b93-82f1-94ad142fec4a}, ! Handle
  0.9.3;                                  ! Version Identifier

OS:SizingPeriod:DesignDay,
  {78263e75-4698-4eb5-8e99-177cedda99a2}, ! Handle
  MEMPHIS Ann Clg .4% Condns Enth=>MDB,   ! Name
  33,                                     ! Maximum Dry-Bulb Temperature {C}
  9.2,                                    ! Daily Dry-Bulb Temperature Range {deltaC}
  84100,                                  ! Humidity Indicating Conditions at Maximum Dry-Bulb {BasedOnField A3}
  100284,                                 ! Barometric Pressure {Pa}
  3.8,                                    ! Wind Speed {m/s}
  240,                                    ! Wind Direction {deg}
  0,                                      ! Sky Clearness
  0,                                      ! Rain Indicator
  0,                                      ! Snow Indicator
  21,                                     ! Day of Month
  7,                                      ! Month
  SummerDesignDay,                        ! Day Type
  0,                                      ! Daylight Saving Time Indicator
  Enthalpy,                               ! Humidity Indicating Type
  ,                                       ! Humidity Indicating Day Schedule Name
  DefaultMultipliers,                     ! Dry-Bulb Temperature Range Modifier Type
  ,                                       ! Dry-Bulb Temperature Range Modifier Schedule Name
  ASHRAETau,                              ! Solar Model Indicator
  ,                                       ! Beam Solar Day Schedule Name
  ,                                       ! Diffuse Solar Day Schedule Name
  0.512,                                  ! ASHRAE Taub {dimensionless}
  1.892;                                  ! ASHRAE Taud {dimensionless}

OS:ComponentData,
  {7c7e404c-e674-4707-af56-8759e32375b7}, ! Handle
  Component Data 1,                       ! Name
  {31eb0e07-b34d-4a8f-a8b1-841a2dd3d3e0}, ! UUID
  {1bdfc517-1af2-489d-96ce-1ffd70f0fb19}, ! Version UUID
  1366310522,                             ! Creation Timestamp
  1366310522,                             ! Version Timestamp
  {78263e75-4698-4eb5-8e99-177cedda99a2}; ! Name of Object 1

