
OS:Version,
  {cc377c4a-b89d-4f09-9f4f-b45a0277eb72}, ! Handle
  0.9.3;                                  ! Version Identifier

OS:SizingPeriod:DesignDay,
  {1080b163-cf28-47b8-957f-aa7500e14540}, ! Handle
  Norfolk Ann Htg 99.6% Condns DB,        ! Name
  -5.7,                                   ! Maximum Dry-Bulb Temperature {C}
  0,                                      ! Daily Dry-Bulb Temperature Range {deltaC}
  -5.7,                                   ! Humidity Indicating Conditions at Maximum Dry-Bulb {BasedOnField A3}
  101217,                                 ! Barometric Pressure {Pa}
  4.8,                                    ! Wind Speed {m/s}
  0,                                      ! Wind Direction {deg}
  0,                                      ! Sky Clearness
  0,                                      ! Rain Indicator
  0,                                      ! Snow Indicator
  21,                                     ! Day of Month
  1,                                      ! Month
  WinterDesignDay,                        ! Day Type
  0,                                      ! Daylight Saving Time Indicator
  Wetbulb,                                ! Humidity Indicating Type
  ,                                       ! Humidity Indicating Day Schedule Name
  DefaultMultipliers,                     ! Dry-Bulb Temperature Range Modifier Type
  ,                                       ! Dry-Bulb Temperature Range Modifier Schedule Name
  ASHRAEClearSky;                         ! Solar Model Indicator

OS:ComponentData,
  {19c6e041-d5be-46ac-8421-95a447aadaed}, ! Handle
  Component Data 1,                       ! Name
  {143a14a1-911a-40a7-b67d-b2ab4061a3ff}, ! UUID
  {0962c74b-47f5-4d94-84f8-e7dfb060a39b}, ! Version UUID
  1366311127,                             ! Creation Timestamp
  1366311127,                             ! Version Timestamp
  {1080b163-cf28-47b8-957f-aa7500e14540}; ! Name of Object 1

