
OS:Version,
  {187bffa0-9a23-4cd3-bf7b-19be789e4492}, ! Handle
  0.9.3;                                  ! Version Identifier

OS:SizingPeriod:DesignDay,
  {5b3f0b72-3f67-4f1e-b53b-94aec958ca86}, ! Handle
  Oscoda Wurtsmith Afb Ann Clg 2% Condns Enth=>MDB, ! Name
  26.6,                                   ! Maximum Dry-Bulb Temperature {C}
  11.8,                                   ! Daily Dry-Bulb Temperature Range {deltaC}
  65500,                                  ! Humidity Indicating Conditions at Maximum Dry-Bulb {BasedOnField A3}
  99087,                                  ! Barometric Pressure {Pa}
  5.4,                                    ! Wind Speed {m/s}
  200,                                    ! Wind Direction {deg}
  0,                                      ! Sky Clearness
  0,                                      ! Rain Indicator
  0,                                      ! Snow Indicator
  21,                                     ! Day of Month
  7,                                      ! Month
  SummerDesignDay,                        ! Day Type
  0,                                      ! Daylight Saving Time Indicator
  Enthalpy,                               ! Humidity Indicating Type
  ,                                       ! Humidity Indicating Day Schedule Name
  DefaultMultipliers,                     ! Dry-Bulb Temperature Range Modifier Type
  ,                                       ! Dry-Bulb Temperature Range Modifier Schedule Name
  ASHRAETau,                              ! Solar Model Indicator
  ,                                       ! Beam Solar Day Schedule Name
  ,                                       ! Diffuse Solar Day Schedule Name
  0.426,                                  ! ASHRAE Taub {dimensionless}
  2.154;                                  ! ASHRAE Taud {dimensionless}

OS:ComponentData,
  {3c2b9c1d-daab-41ef-8006-f0922e5fb1ac}, ! Handle
  Component Data 1,                       ! Name
  {27f19fce-207c-4992-adf4-a2d5103dc62b}, ! UUID
  {a092d991-b141-4ac6-aaf7-ae7000c37c38}, ! Version UUID
  1366308085,                             ! Creation Timestamp
  1366308085,                             ! Version Timestamp
  {5b3f0b72-3f67-4f1e-b53b-94aec958ca86}; ! Name of Object 1

