
OS:Version,
  {238902b2-4f66-4f8b-b2e2-131807bb8e4c}, ! Handle
  0.9.3;                                  ! Version Identifier

OS:SizingPeriod:DesignDay,
  {15bc198d-95da-4c0b-b090-27cbb4d67b77}, ! Handle
  Norwood Memorial Ann Clg 2% Condns DB=>MWB, ! Name
  28.9,                                   ! Maximum Dry-Bulb Temperature {C}
  11.9,                                   ! Daily Dry-Bulb Temperature Range {deltaC}
  22,                                     ! Humidity Indicating Conditions at Maximum Dry-Bulb {BasedOnField A3}
  101145,                                 ! Barometric Pressure {Pa}
  4.7,                                    ! Wind Speed {m/s}
  280,                                    ! Wind Direction {deg}
  0,                                      ! Sky Clearness
  0,                                      ! Rain Indicator
  0,                                      ! Snow Indicator
  21,                                     ! Day of Month
  7,                                      ! Month
  SummerDesignDay,                        ! Day Type
  0,                                      ! Daylight Saving Time Indicator
  Wetbulb,                                ! Humidity Indicating Type
  ,                                       ! Humidity Indicating Day Schedule Name
  DefaultMultipliers,                     ! Dry-Bulb Temperature Range Modifier Type
  ,                                       ! Dry-Bulb Temperature Range Modifier Schedule Name
  ASHRAETau,                              ! Solar Model Indicator
  ,                                       ! Beam Solar Day Schedule Name
  ,                                       ! Diffuse Solar Day Schedule Name
  0.492,                                  ! ASHRAE Taub {dimensionless}
  1.934;                                  ! ASHRAE Taud {dimensionless}

OS:ComponentData,
  {2257df85-3237-4adc-aa41-d2d3bb60f85a}, ! Handle
  Component Data 1,                       ! Name
  {b62e8b92-9b82-41e8-8e4c-283e68f69a4d}, ! UUID
  {4964b16d-670f-4bd3-9d21-995ff0971d11}, ! Version UUID
  1366307811,                             ! Creation Timestamp
  1366307811,                             ! Version Timestamp
  {15bc198d-95da-4c0b-b090-27cbb4d67b77}; ! Name of Object 1

