
OS:Version,
  {fb39b829-092c-4b69-af73-26455c105e38}, ! Handle
  0.9.3;                                  ! Version Identifier

OS:SizingPeriod:DesignDay,
  {458f4058-c598-4ce5-85eb-d09f315a6773}, ! Handle
  Watertown Municipal Ap Ann Clg 2% Condns Enth=>MDB, ! Name
  27.2,                                   ! Maximum Dry-Bulb Temperature {C}
  11.8,                                   ! Daily Dry-Bulb Temperature Range {deltaC}
  67400,                                  ! Humidity Indicating Conditions at Maximum Dry-Bulb {BasedOnField A3}
  95095,                                  ! Barometric Pressure {Pa}
  6.4,                                    ! Wind Speed {m/s}
  180,                                    ! Wind Direction {deg}
  0,                                      ! Sky Clearness
  0,                                      ! Rain Indicator
  0,                                      ! Snow Indicator
  21,                                     ! Day of Month
  7,                                      ! Month
  SummerDesignDay,                        ! Day Type
  0,                                      ! Daylight Saving Time Indicator
  Enthalpy,                               ! Humidity Indicating Type
  ,                                       ! Humidity Indicating Day Schedule Name
  DefaultMultipliers,                     ! Dry-Bulb Temperature Range Modifier Type
  ,                                       ! Dry-Bulb Temperature Range Modifier Schedule Name
  ASHRAETau,                              ! Solar Model Indicator
  ,                                       ! Beam Solar Day Schedule Name
  ,                                       ! Diffuse Solar Day Schedule Name
  0.389,                                  ! ASHRAE Taub {dimensionless}
  2.276;                                  ! ASHRAE Taud {dimensionless}

OS:ComponentData,
  {639748c4-0f10-4917-8f69-6b1826499f81}, ! Handle
  Component Data 1,                       ! Name
  {9c81b801-d351-4b85-ac80-1f01ba3b6ba8}, ! UUID
  {6a6ae7e2-7b67-4a70-9a59-6017b2c32644}, ! Version UUID
  1366310469,                             ! Creation Timestamp
  1366310469,                             ! Version Timestamp
  {458f4058-c598-4ce5-85eb-d09f315a6773}; ! Name of Object 1

