
OS:Version,
  {5ef8c8fa-c377-4117-8e4a-ba63253805fe}, ! Handle
  0.9.3;                                  ! Version Identifier

OS:SizingPeriod:DesignDay,
  {eb73c4af-b6ab-4f52-8a5a-0824dfaf457f}, ! Handle
  Salisbury Wicomico Co Ap Ann Clg 1% Condns DP=>MDB, ! Name
  27.7,                                   ! Maximum Dry-Bulb Temperature {C}
  10.6,                                   ! Daily Dry-Bulb Temperature Range {deltaC}
  24.3,                                   ! Humidity Indicating Conditions at Maximum Dry-Bulb {BasedOnField A3}
  101145,                                 ! Barometric Pressure {Pa}
  4.4,                                    ! Wind Speed {m/s}
  240,                                    ! Wind Direction {deg}
  0,                                      ! Sky Clearness
  0,                                      ! Rain Indicator
  0,                                      ! Snow Indicator
  21,                                     ! Day of Month
  7,                                      ! Month
  SummerDesignDay,                        ! Day Type
  0,                                      ! Daylight Saving Time Indicator
  Dewpoint,                               ! Humidity Indicating Type
  ,                                       ! Humidity Indicating Day Schedule Name
  DefaultMultipliers,                     ! Dry-Bulb Temperature Range Modifier Type
  ,                                       ! Dry-Bulb Temperature Range Modifier Schedule Name
  ASHRAETau,                              ! Solar Model Indicator
  ,                                       ! Beam Solar Day Schedule Name
  ,                                       ! Diffuse Solar Day Schedule Name
  0.58,                                   ! ASHRAE Taub {dimensionless}
  1.711;                                  ! ASHRAE Taud {dimensionless}

OS:ComponentData,
  {0ab97a51-fdd7-4ffd-b4fb-7b9e6b42a94c}, ! Handle
  Component Data 1,                       ! Name
  {2774724a-c76a-4e31-89a3-b9204d024635}, ! UUID
  {f0abd79d-69d7-4b99-afe1-d76690dff590}, ! Version UUID
  1366307862,                             ! Creation Timestamp
  1366307862,                             ! Version Timestamp
  {eb73c4af-b6ab-4f52-8a5a-0824dfaf457f}; ! Name of Object 1

