
OS:Version,
  {4599c0cf-4bd6-48ed-b9d0-e5f9842cbad0}, ! Handle
  0.9.3;                                  ! Version Identifier

OS:SizingPeriod:DesignDay,
  {27dd64e0-1a5b-46fe-bfc1-93e67cebcf55}, ! Handle
  Seattle Seattle Tacoma Intl A Ann Htg 99% Condns DB, ! Name
  -1.6,                                   ! Maximum Dry-Bulb Temperature {C}
  0,                                      ! Daily Dry-Bulb Temperature Range {deltaC}
  -1.6,                                   ! Humidity Indicating Conditions at Maximum Dry-Bulb {BasedOnField A3}
  99868,                                  ! Barometric Pressure {Pa}
  4.3,                                    ! Wind Speed {m/s}
  20,                                     ! Wind Direction {deg}
  0,                                      ! Sky Clearness
  0,                                      ! Rain Indicator
  0,                                      ! Snow Indicator
  21,                                     ! Day of Month
  12,                                     ! Month
  WinterDesignDay,                        ! Day Type
  0,                                      ! Daylight Saving Time Indicator
  Wetbulb,                                ! Humidity Indicating Type
  ,                                       ! Humidity Indicating Day Schedule Name
  DefaultMultipliers,                     ! Dry-Bulb Temperature Range Modifier Type
  ,                                       ! Dry-Bulb Temperature Range Modifier Schedule Name
  ASHRAEClearSky;                         ! Solar Model Indicator

OS:ComponentData,
  {ef7762a3-6710-46b3-abd5-35f04fa18696}, ! Handle
  Component Data 1,                       ! Name
  {b31a8355-e836-4f80-898b-d7efeac29e93}, ! UUID
  {a70a9df2-0dbf-4540-9b50-1471433b4805}, ! Version UUID
  1366311363,                             ! Creation Timestamp
  1366311363,                             ! Version Timestamp
  {27dd64e0-1a5b-46fe-bfc1-93e67cebcf55}; ! Name of Object 1

