
OS:Version,
  {19cfa0d9-2bd0-406a-9c90-f09310c69780}, ! Handle
  0.9.3;                                  ! Version Identifier

OS:SizingPeriod:DesignDay,
  {0cc66bb9-653e-47c6-83bb-ef6d94444813}, ! Handle
  Mankato Awos Ann Htg 99% Condns DB,     ! Name
  -22.3,                                  ! Maximum Dry-Bulb Temperature {C}
  0,                                      ! Daily Dry-Bulb Temperature Range {deltaC}
  -22.3,                                  ! Humidity Indicating Conditions at Maximum Dry-Bulb {BasedOnField A3}
  97644,                                  ! Barometric Pressure {Pa}
  3.9,                                    ! Wind Speed {m/s}
  310,                                    ! Wind Direction {deg}
  0,                                      ! Sky Clearness
  0,                                      ! Rain Indicator
  0,                                      ! Snow Indicator
  21,                                     ! Day of Month
  1,                                      ! Month
  WinterDesignDay,                        ! Day Type
  0,                                      ! Daylight Saving Time Indicator
  Wetbulb,                                ! Humidity Indicating Type
  ,                                       ! Humidity Indicating Day Schedule Name
  DefaultMultipliers,                     ! Dry-Bulb Temperature Range Modifier Type
  ,                                       ! Dry-Bulb Temperature Range Modifier Schedule Name
  ASHRAEClearSky;                         ! Solar Model Indicator

OS:ComponentData,
  {9ee49aff-5863-4f14-a7e0-ac2823460d11}, ! Handle
  Component Data 1,                       ! Name
  {5085ec1a-e195-4a27-8bad-13f777492daf}, ! UUID
  {3cb6e700-c1ff-4f59-a0eb-eba0a629332a}, ! Version UUID
  1366308292,                             ! Creation Timestamp
  1366308292,                             ! Version Timestamp
  {0cc66bb9-653e-47c6-83bb-ef6d94444813}; ! Name of Object 1

