
OS:Version,
  {a93d8281-5afc-47ca-b81f-1a75622fdc7b}, ! Handle
  0.9.3;                                  ! Version Identifier

OS:SizingPeriod:DesignDay,
  {1f86363b-1b32-488f-98d1-0c835de1d547}, ! Handle
  Winchester Rgnl Ann Clg 2% Condns DB=>MWB, ! Name
  31.4,                                   ! Maximum Dry-Bulb Temperature {C}
  11.2,                                   ! Daily Dry-Bulb Temperature Range {deltaC}
  22.8,                                   ! Humidity Indicating Conditions at Maximum Dry-Bulb {BasedOnField A3}
  98686,                                  ! Barometric Pressure {Pa}
  3.4,                                    ! Wind Speed {m/s}
  280,                                    ! Wind Direction {deg}
  0,                                      ! Sky Clearness
  0,                                      ! Rain Indicator
  0,                                      ! Snow Indicator
  21,                                     ! Day of Month
  7,                                      ! Month
  SummerDesignDay,                        ! Day Type
  0,                                      ! Daylight Saving Time Indicator
  Wetbulb,                                ! Humidity Indicating Type
  ,                                       ! Humidity Indicating Day Schedule Name
  DefaultMultipliers,                     ! Dry-Bulb Temperature Range Modifier Type
  ,                                       ! Dry-Bulb Temperature Range Modifier Schedule Name
  ASHRAETau,                              ! Solar Model Indicator
  ,                                       ! Beam Solar Day Schedule Name
  ,                                       ! Diffuse Solar Day Schedule Name
  0.532,                                  ! ASHRAE Taub {dimensionless}
  1.802;                                  ! ASHRAE Taud {dimensionless}

OS:ComponentData,
  {956dc854-b30b-48b3-9884-ccdcd8cfbd3d}, ! Handle
  Component Data 1,                       ! Name
  {7ebed21b-30e9-4998-8669-de516b466b9e}, ! UUID
  {bab5d010-c907-4512-b83f-0a6df3da2fdc}, ! Version UUID
  1366311224,                             ! Creation Timestamp
  1366311224,                             ! Version Timestamp
  {1f86363b-1b32-488f-98d1-0c835de1d547}; ! Name of Object 1

