
OS:Version,
  {82cfb0e1-6b47-4442-9410-e50eb037c7f7}, ! Handle
  0.9.3;                                  ! Version Identifier

OS:SizingPeriod:DesignDay,
  {9d36d62b-dad6-4e8e-8dac-4ee46c9530b2}, ! Handle
  Minot Afb Ann Clg 1% Condns WB=>MDB,    ! Name
  28.6,                                   ! Maximum Dry-Bulb Temperature {C}
  13.3,                                   ! Daily Dry-Bulb Temperature Range {deltaC}
  21.6,                                   ! Humidity Indicating Conditions at Maximum Dry-Bulb {BasedOnField A3}
  95495,                                  ! Barometric Pressure {Pa}
  5.2,                                    ! Wind Speed {m/s}
  170,                                    ! Wind Direction {deg}
  0,                                      ! Sky Clearness
  0,                                      ! Rain Indicator
  0,                                      ! Snow Indicator
  21,                                     ! Day of Month
  7,                                      ! Month
  SummerDesignDay,                        ! Day Type
  0,                                      ! Daylight Saving Time Indicator
  Wetbulb,                                ! Humidity Indicating Type
  ,                                       ! Humidity Indicating Day Schedule Name
  DefaultMultipliers,                     ! Dry-Bulb Temperature Range Modifier Type
  ,                                       ! Dry-Bulb Temperature Range Modifier Schedule Name
  ASHRAETau,                              ! Solar Model Indicator
  ,                                       ! Beam Solar Day Schedule Name
  ,                                       ! Diffuse Solar Day Schedule Name
  0.388,                                  ! ASHRAE Taub {dimensionless}
  2.243;                                  ! ASHRAE Taud {dimensionless}

OS:ComponentData,
  {aceb947e-408b-42d0-a05d-ec8589f98855}, ! Handle
  Component Data 1,                       ! Name
  {9d3f42cb-6a62-418c-bc95-3756c6a5827b}, ! UUID
  {c482de4f-5a3a-4a29-a419-85cb8da1dfbd}, ! Version UUID
  1366309059,                             ! Creation Timestamp
  1366309059,                             ! Version Timestamp
  {9d36d62b-dad6-4e8e-8dac-4ee46c9530b2}; ! Name of Object 1

