
OS:Version,
  {90a1230c-65cb-41df-88f3-eea5111313f8}, ! Handle
  0.9.3;                                  ! Version Identifier

OS:SizingPeriod:DesignDay,
  {d7bb2f66-7f1f-4cd9-b99f-d48d26338f54}, ! Handle
  VICTORIA Ann Clg 2% Condns DP=>MDB,     ! Name
  27.5,                                   ! Maximum Dry-Bulb Temperature {C}
  10.6,                                   ! Daily Dry-Bulb Temperature Range {deltaC}
  25,                                     ! Humidity Indicating Conditions at Maximum Dry-Bulb {BasedOnField A3}
  100941,                                 ! Barometric Pressure {Pa}
  4.9,                                    ! Wind Speed {m/s}
  170,                                    ! Wind Direction {deg}
  0,                                      ! Sky Clearness
  0,                                      ! Rain Indicator
  0,                                      ! Snow Indicator
  21,                                     ! Day of Month
  8,                                      ! Month
  SummerDesignDay,                        ! Day Type
  0,                                      ! Daylight Saving Time Indicator
  Dewpoint,                               ! Humidity Indicating Type
  ,                                       ! Humidity Indicating Day Schedule Name
  DefaultMultipliers,                     ! Dry-Bulb Temperature Range Modifier Type
  ,                                       ! Dry-Bulb Temperature Range Modifier Schedule Name
  ASHRAETau,                              ! Solar Model Indicator
  ,                                       ! Beam Solar Day Schedule Name
  ,                                       ! Diffuse Solar Day Schedule Name
  0.474,                                  ! ASHRAE Taub {dimensionless}
  2.062;                                  ! ASHRAE Taud {dimensionless}

OS:ComponentData,
  {4d1e2235-13ed-4989-af8b-9b5fd4392a1f}, ! Handle
  Component Data 1,                       ! Name
  {ccd53ec0-ee67-437b-a7ec-936dca62ec74}, ! UUID
  {867f9aa9-457d-48ce-9aaf-f537aa295a94}, ! Version UUID
  1366310909,                             ! Creation Timestamp
  1366310909,                             ! Version Timestamp
  {d7bb2f66-7f1f-4cd9-b99f-d48d26338f54}; ! Name of Object 1

