
OS:Version,
  {cdfe81bb-7b9c-4f84-b0f6-803a505ec932}, ! Handle
  0.9.3;                                  ! Version Identifier

OS:SizingPeriod:DesignDay,
  {d5318a25-5410-4bec-a664-b3474b5c892a}, ! Handle
  Palm Springs Thermal Ap Ann Hum_n 99.6% Condns DP=>MCDB, ! Name
  15.3,                                   ! Maximum Dry-Bulb Temperature {C}
  0,                                      ! Daily Dry-Bulb Temperature Range {deltaC}
  -13.5,                                  ! Humidity Indicating Conditions at Maximum Dry-Bulb {BasedOnField A3}
  101734,                                 ! Barometric Pressure {Pa}
  1.5,                                    ! Wind Speed {m/s}
  340,                                    ! Wind Direction {deg}
  0,                                      ! Sky Clearness
  0,                                      ! Rain Indicator
  0,                                      ! Snow Indicator
  21,                                     ! Day of Month
  12,                                     ! Month
  WinterDesignDay,                        ! Day Type
  0,                                      ! Daylight Saving Time Indicator
  Dewpoint,                               ! Humidity Indicating Type
  ,                                       ! Humidity Indicating Day Schedule Name
  DefaultMultipliers,                     ! Dry-Bulb Temperature Range Modifier Type
  ,                                       ! Dry-Bulb Temperature Range Modifier Schedule Name
  ASHRAEClearSky;                         ! Solar Model Indicator

OS:ComponentData,
  {c9cff85e-5f61-499f-9f6b-dd0c24968048}, ! Handle
  Component Data 1,                       ! Name
  {a40542de-c5c6-4a67-a86d-6829bcf4e9b2}, ! UUID
  {d531cf29-ec8e-43b3-8e2b-3e4730e49388}, ! Version UUID
  1366306527,                             ! Creation Timestamp
  1366306527,                             ! Version Timestamp
  {d5318a25-5410-4bec-a664-b3474b5c892a}; ! Name of Object 1

