
OS:Version,
  {2a50a971-367c-4f76-9682-8067725cb2ec}, ! Handle
  0.9.3;                                  ! Version Identifier

OS:SizingPeriod:DesignDay,
  {355249fd-03c6-40a1-995f-80446df2ce8b}, ! Handle
  Palm Springs Thermal Ap Ann Hum_n 99.6% Condns DP=>MCDB, ! Name
  15.3,                                   ! Maximum Dry-Bulb Temperature {C}
  0,                                      ! Daily Dry-Bulb Temperature Range {deltaC}
  -13.5,                                  ! Humidity Indicating Conditions at Maximum Dry-Bulb {BasedOnField A3}
  101734,                                 ! Barometric Pressure {Pa}
  1.5,                                    ! Wind Speed {m/s}
  340,                                    ! Wind Direction {deg}
  0,                                      ! Sky Clearness
  0,                                      ! Rain Indicator
  0,                                      ! Snow Indicator
  21,                                     ! Day of Month
  12,                                     ! Month
  WinterDesignDay,                        ! Day Type
  0,                                      ! Daylight Saving Time Indicator
  Dewpoint,                               ! Humidity Indicating Type
  ,                                       ! Humidity Indicating Day Schedule Name
  DefaultMultipliers,                     ! Dry-Bulb Temperature Range Modifier Type
  ,                                       ! Dry-Bulb Temperature Range Modifier Schedule Name
  ASHRAEClearSky;                         ! Solar Model Indicator

