
OS:Version,
  {a8919a3c-6fd9-4cfe-8680-0b4a609eadfa}, ! Handle
  0.9.3;                                  ! Version Identifier

OS:SizingPeriod:DesignDay,
  {8eb88262-b374-452c-a097-3723be2d388d}, ! Handle
  Ocala Muni  Awos Ann Clg .4% Condns DB=>MWB, ! Name
  34,                                     ! Maximum Dry-Bulb Temperature {C}
  10.3,                                   ! Daily Dry-Bulb Temperature Range {deltaC}
  24,                                     ! Humidity Indicating Conditions at Maximum Dry-Bulb {BasedOnField A3}
  101001,                                 ! Barometric Pressure {Pa}
  3.2,                                    ! Wind Speed {m/s}
  250,                                    ! Wind Direction {deg}
  0,                                      ! Sky Clearness
  0,                                      ! Rain Indicator
  0,                                      ! Snow Indicator
  21,                                     ! Day of Month
  7,                                      ! Month
  SummerDesignDay,                        ! Day Type
  0,                                      ! Daylight Saving Time Indicator
  Wetbulb,                                ! Humidity Indicating Type
  ,                                       ! Humidity Indicating Day Schedule Name
  DefaultMultipliers,                     ! Dry-Bulb Temperature Range Modifier Type
  ,                                       ! Dry-Bulb Temperature Range Modifier Schedule Name
  ASHRAETau,                              ! Solar Model Indicator
  ,                                       ! Beam Solar Day Schedule Name
  ,                                       ! Diffuse Solar Day Schedule Name
  0.524,                                  ! ASHRAE Taub {dimensionless}
  1.897;                                  ! ASHRAE Taud {dimensionless}

OS:ComponentData,
  {d9bcda6b-3e67-4462-b063-5ebd39f42e82}, ! Handle
  Component Data 1,                       ! Name
  {47f831b6-7025-43dc-9ec7-ccc273f4b2ec}, ! UUID
  {799e8394-f1f0-431e-afed-bbb59b3d5da9}, ! Version UUID
  1366306880,                             ! Creation Timestamp
  1366306880,                             ! Version Timestamp
  {8eb88262-b374-452c-a097-3723be2d388d}; ! Name of Object 1

