
OS:Version,
  {6f91aa5e-e9bb-4020-89be-d0dcb8d72f59}, ! Handle
  0.9.3;                                  ! Version Identifier

OS:SizingPeriod:DesignDay,
  {11dcc161-66b8-4c37-b90f-b66eaa8ebd41}, ! Handle
  Sacramento Metropolitan Ap Ann Clg .4% Condns DP=>MDB, ! Name
  29.4,                                   ! Maximum Dry-Bulb Temperature {C}
  17.8,                                   ! Daily Dry-Bulb Temperature Range {deltaC}
  17.9,                                   ! Humidity Indicating Conditions at Maximum Dry-Bulb {BasedOnField A3}
  101241,                                 ! Barometric Pressure {Pa}
  2.9,                                    ! Wind Speed {m/s}
  180,                                    ! Wind Direction {deg}
  0,                                      ! Sky Clearness
  0,                                      ! Rain Indicator
  0,                                      ! Snow Indicator
  21,                                     ! Day of Month
  7,                                      ! Month
  SummerDesignDay,                        ! Day Type
  0,                                      ! Daylight Saving Time Indicator
  Dewpoint,                               ! Humidity Indicating Type
  ,                                       ! Humidity Indicating Day Schedule Name
  DefaultMultipliers,                     ! Dry-Bulb Temperature Range Modifier Type
  ,                                       ! Dry-Bulb Temperature Range Modifier Schedule Name
  ASHRAETau,                              ! Solar Model Indicator
  ,                                       ! Beam Solar Day Schedule Name
  ,                                       ! Diffuse Solar Day Schedule Name
  0.379,                                  ! ASHRAE Taub {dimensionless}
  2.355;                                  ! ASHRAE Taud {dimensionless}

OS:ComponentData,
  {4d9704c9-2502-4cda-876e-10065e4cca46}, ! Handle
  Component Data 1,                       ! Name
  {e41cd882-39fa-4bb9-be1b-f574fd61ceb5}, ! UUID
  {c216bac5-b41a-444d-910a-a6a62454e8f1}, ! Version UUID
  1366306568,                             ! Creation Timestamp
  1366306568,                             ! Version Timestamp
  {11dcc161-66b8-4c37-b90f-b66eaa8ebd41}; ! Name of Object 1

