
OS:Version,
  {e74e5587-dd57-4755-bdec-af69d7f33708}, ! Handle
  0.9.3;                                  ! Version Identifier

OS:SizingPeriod:DesignDay,
  {69137e44-0e4b-4244-92e7-ea877960a3c5}, ! Handle
  St Cloud Regional Arpt Ann Clg 2% Condns Enth=>MDB, ! Name
  27.3,                                   ! Maximum Dry-Bulb Temperature {C}
  12.3,                                   ! Daily Dry-Bulb Temperature Range {deltaC}
  67400,                                  ! Humidity Indicating Conditions at Maximum Dry-Bulb {BasedOnField A3}
  97644,                                  ! Barometric Pressure {Pa}
  5.1,                                    ! Wind Speed {m/s}
  180,                                    ! Wind Direction {deg}
  0,                                      ! Sky Clearness
  0,                                      ! Rain Indicator
  0,                                      ! Snow Indicator
  21,                                     ! Day of Month
  7,                                      ! Month
  SummerDesignDay,                        ! Day Type
  0,                                      ! Daylight Saving Time Indicator
  Enthalpy,                               ! Humidity Indicating Type
  ,                                       ! Humidity Indicating Day Schedule Name
  DefaultMultipliers,                     ! Dry-Bulb Temperature Range Modifier Type
  ,                                       ! Dry-Bulb Temperature Range Modifier Schedule Name
  ASHRAETau,                              ! Solar Model Indicator
  ,                                       ! Beam Solar Day Schedule Name
  ,                                       ! Diffuse Solar Day Schedule Name
  0.405,                                  ! ASHRAE Taub {dimensionless}
  2.216;                                  ! ASHRAE Taud {dimensionless}

OS:ComponentData,
  {125f8bd3-82fb-473d-acd8-f8c2eda4eae5}, ! Handle
  Component Data 1,                       ! Name
  {4049aacd-aa1d-4e64-bf1e-12a868d4c3f8}, ! UUID
  {92581134-4097-4bed-a6c1-73c8e1f6285b}, ! Version UUID
  1366308431,                             ! Creation Timestamp
  1366308431,                             ! Version Timestamp
  {69137e44-0e4b-4244-92e7-ea877960a3c5}; ! Name of Object 1

