
OS:Version,
  {7cf25986-dc48-4ef1-9680-5bf929205a54}, ! Handle
  0.9.3;                                  ! Version Identifier

OS:SizingPeriod:DesignDay,
  {979406c8-e6cf-4954-a74c-c50ad95f2a0c}, ! Handle
  South Bend Michiana Rgnl Ap Ann Hum_n 99% Condns DP=>MCDB, ! Name
  -14.5,                                  ! Maximum Dry-Bulb Temperature {C}
  0,                                      ! Daily Dry-Bulb Temperature Range {deltaC}
  -18.9,                                  ! Humidity Indicating Conditions at Maximum Dry-Bulb {BasedOnField A3}
  98522,                                  ! Barometric Pressure {Pa}
  5.1,                                    ! Wind Speed {m/s}
  230,                                    ! Wind Direction {deg}
  0,                                      ! Sky Clearness
  0,                                      ! Rain Indicator
  0,                                      ! Snow Indicator
  21,                                     ! Day of Month
  1,                                      ! Month
  WinterDesignDay,                        ! Day Type
  0,                                      ! Daylight Saving Time Indicator
  Dewpoint,                               ! Humidity Indicating Type
  ,                                       ! Humidity Indicating Day Schedule Name
  DefaultMultipliers,                     ! Dry-Bulb Temperature Range Modifier Type
  ,                                       ! Dry-Bulb Temperature Range Modifier Schedule Name
  ASHRAEClearSky;                         ! Solar Model Indicator

OS:ComponentData,
  {54761cf7-9602-4a83-9b7a-4b54203a487e}, ! Handle
  Component Data 1,                       ! Name
  {5a105f95-be60-4419-b905-e222601f3fae}, ! UUID
  {7fe84dec-d350-4736-8de7-7a2460916936}, ! Version UUID
  1366307483,                             ! Creation Timestamp
  1366307483,                             ! Version Timestamp
  {979406c8-e6cf-4954-a74c-c50ad95f2a0c}; ! Name of Object 1

