
OS:Version,
  {17403308-fba7-47b8-9af0-c4a0ee39266e}, ! Handle
  0.9.3;                                  ! Version Identifier

OS:SizingPeriod:DesignDay,
  {be486b14-4228-4f6f-b288-5fa46e1f05de}, ! Handle
  Nacogdoches  Awos Ann Clg 1% Condns Enth=>MDB, ! Name
  31.7,                                   ! Maximum Dry-Bulb Temperature {C}
  11.4,                                   ! Daily Dry-Bulb Temperature Range {deltaC}
  79100,                                  ! Humidity Indicating Conditions at Maximum Dry-Bulb {BasedOnField A3}
  100034,                                 ! Barometric Pressure {Pa}
  3,                                      ! Wind Speed {m/s}
  200,                                    ! Wind Direction {deg}
  0,                                      ! Sky Clearness
  0,                                      ! Rain Indicator
  0,                                      ! Snow Indicator
  21,                                     ! Day of Month
  7,                                      ! Month
  SummerDesignDay,                        ! Day Type
  0,                                      ! Daylight Saving Time Indicator
  Enthalpy,                               ! Humidity Indicating Type
  ,                                       ! Humidity Indicating Day Schedule Name
  DefaultMultipliers,                     ! Dry-Bulb Temperature Range Modifier Type
  ,                                       ! Dry-Bulb Temperature Range Modifier Schedule Name
  ASHRAETau,                              ! Solar Model Indicator
  ,                                       ! Beam Solar Day Schedule Name
  ,                                       ! Diffuse Solar Day Schedule Name
  0.488,                                  ! ASHRAE Taub {dimensionless}
  2.012;                                  ! ASHRAE Taud {dimensionless}

OS:ComponentData,
  {4a785571-38c5-46fc-99f6-aa7aed744420}, ! Handle
  Component Data 1,                       ! Name
  {492e0900-0aab-47c7-8ba5-6fbad592554f}, ! UUID
  {f30e7f45-5831-48d9-944a-6e023ea9aa4e}, ! Version UUID
  1366310841,                             ! Creation Timestamp
  1366310841,                             ! Version Timestamp
  {be486b14-4228-4f6f-b288-5fa46e1f05de}; ! Name of Object 1

