
OS:Version,
  {a4885826-a4aa-4780-b64a-5540f7b5ab02}, ! Handle
  0.9.3;                                  ! Version Identifier

OS:SizingPeriod:DesignDay,
  {1d400621-d339-4b33-8eeb-9e4de8590e6c}, ! Handle
  QUILLAYUTE Ann Clg 2% Condns Enth=>MDB, ! Name
  20.2,                                   ! Maximum Dry-Bulb Temperature {C}
  9.8,                                    ! Daily Dry-Bulb Temperature Range {deltaC}
  45200,                                  ! Humidity Indicating Conditions at Maximum Dry-Bulb {BasedOnField A3}
  100666,                                 ! Barometric Pressure {Pa}
  3.7,                                    ! Wind Speed {m/s}
  240,                                    ! Wind Direction {deg}
  0,                                      ! Sky Clearness
  0,                                      ! Rain Indicator
  0,                                      ! Snow Indicator
  21,                                     ! Day of Month
  8,                                      ! Month
  SummerDesignDay,                        ! Day Type
  0,                                      ! Daylight Saving Time Indicator
  Enthalpy,                               ! Humidity Indicating Type
  ,                                       ! Humidity Indicating Day Schedule Name
  DefaultMultipliers,                     ! Dry-Bulb Temperature Range Modifier Type
  ,                                       ! Dry-Bulb Temperature Range Modifier Schedule Name
  ASHRAETau,                              ! Solar Model Indicator
  ,                                       ! Beam Solar Day Schedule Name
  ,                                       ! Diffuse Solar Day Schedule Name
  0.351,                                  ! ASHRAE Taub {dimensionless}
  2.578;                                  ! ASHRAE Taud {dimensionless}

OS:ComponentData,
  {6575f643-f267-4a13-8bbb-9e74b88a43bb}, ! Handle
  Component Data 1,                       ! Name
  {c57834f8-8e2e-4cab-b53a-3d2436f37caf}, ! UUID
  {7bebb50e-7a62-480a-96ec-7c3a8a460edf}, ! Version UUID
  1366311338,                             ! Creation Timestamp
  1366311338,                             ! Version Timestamp
  {1d400621-d339-4b33-8eeb-9e4de8590e6c}; ! Name of Object 1

