
OS:Version,
  {703c49e7-8dca-45cf-a617-b6e102f31faa}, ! Handle
  0.9.3;                                  ! Version Identifier

OS:SizingPeriod:DesignDay,
  {d16d63df-749e-4fb5-b6e4-e2823224fc77}, ! Handle
  PITTSBURGH Ann Clg 1% Condns DB=>MWB,   ! Name
  30.4,                                   ! Maximum Dry-Bulb Temperature {C}
  10.3,                                   ! Daily Dry-Bulb Temperature Range {deltaC}
  21.7,                                   ! Humidity Indicating Conditions at Maximum Dry-Bulb {BasedOnField A3}
  96924,                                  ! Barometric Pressure {Pa}
  4.5,                                    ! Wind Speed {m/s}
  220,                                    ! Wind Direction {deg}
  0,                                      ! Sky Clearness
  0,                                      ! Rain Indicator
  0,                                      ! Snow Indicator
  21,                                     ! Day of Month
  7,                                      ! Month
  SummerDesignDay,                        ! Day Type
  0,                                      ! Daylight Saving Time Indicator
  Wetbulb,                                ! Humidity Indicating Type
  ,                                       ! Humidity Indicating Day Schedule Name
  DefaultMultipliers,                     ! Dry-Bulb Temperature Range Modifier Type
  ,                                       ! Dry-Bulb Temperature Range Modifier Schedule Name
  ASHRAETau,                              ! Solar Model Indicator
  ,                                       ! Beam Solar Day Schedule Name
  ,                                       ! Diffuse Solar Day Schedule Name
  0.479,                                  ! ASHRAE Taub {dimensionless}
  1.937;                                  ! ASHRAE Taud {dimensionless}

OS:ComponentData,
  {ad76457d-c0b8-4781-be8e-bb0cadf69e3d}, ! Handle
  Component Data 1,                       ! Name
  {da3a6b1a-7967-4152-aece-1982cfddb4f8}, ! UUID
  {9974df91-c3e3-4d26-abfa-475e4a6141cb}, ! Version UUID
  1366310236,                             ! Creation Timestamp
  1366310236,                             ! Version Timestamp
  {d16d63df-749e-4fb5-b6e4-e2823224fc77}; ! Name of Object 1

