
OS:Version,
  {9a945e75-b2d2-4a7f-9520-d9854e9d364d}, ! Handle
  0.9.3;                                  ! Version Identifier

OS:SizingPeriod:DesignDay,
  {af10c377-34bd-4481-8596-59a09f6b4b37}, ! Handle
  Minneapolis Crystal Ann Clg .4% Condns DP=>MDB, ! Name
  28.3,                                   ! Maximum Dry-Bulb Temperature {C}
  10.7,                                   ! Daily Dry-Bulb Temperature Range {deltaC}
  22.9,                                   ! Humidity Indicating Conditions at Maximum Dry-Bulb {BasedOnField A3}
  98182,                                  ! Barometric Pressure {Pa}
  5.7,                                    ! Wind Speed {m/s}
  190,                                    ! Wind Direction {deg}
  0,                                      ! Sky Clearness
  0,                                      ! Rain Indicator
  0,                                      ! Snow Indicator
  21,                                     ! Day of Month
  7,                                      ! Month
  SummerDesignDay,                        ! Day Type
  0,                                      ! Daylight Saving Time Indicator
  Dewpoint,                               ! Humidity Indicating Type
  ,                                       ! Humidity Indicating Day Schedule Name
  DefaultMultipliers,                     ! Dry-Bulb Temperature Range Modifier Type
  ,                                       ! Dry-Bulb Temperature Range Modifier Schedule Name
  ASHRAETau,                              ! Solar Model Indicator
  ,                                       ! Beam Solar Day Schedule Name
  ,                                       ! Diffuse Solar Day Schedule Name
  0.415,                                  ! ASHRAE Taub {dimensionless}
  2.179;                                  ! ASHRAE Taud {dimensionless}

OS:ComponentData,
  {59b7377b-f99f-49ca-a4fd-6614d797886c}, ! Handle
  Component Data 1,                       ! Name
  {86abcd46-4d81-4b99-9891-be618a12dea0}, ! UUID
  {8d165700-cb83-4c50-b954-d398e786d9c2}, ! Version UUID
  1366308306,                             ! Creation Timestamp
  1366308306,                             ! Version Timestamp
  {af10c377-34bd-4481-8596-59a09f6b4b37}; ! Name of Object 1

