
OS:Version,
  {00a8abcc-1a77-4b7e-8bc8-131acc3322fb}, ! Handle
  0.9.3;                                  ! Version Identifier

OS:SizingPeriod:DesignDay,
  {669c1ed0-f88c-4527-abcd-0b0eac7e0338}, ! Handle
  Peoria Greater Peoria Ap Ann Clg 1% Condns WB=>MDB, ! Name
  30.6,                                   ! Maximum Dry-Bulb Temperature {C}
  10.6,                                   ! Daily Dry-Bulb Temperature Range {deltaC}
  25.4,                                   ! Humidity Indicating Conditions at Maximum Dry-Bulb {BasedOnField A3}
  98957,                                  ! Barometric Pressure {Pa}
  4.8,                                    ! Wind Speed {m/s}
  220,                                    ! Wind Direction {deg}
  0,                                      ! Sky Clearness
  0,                                      ! Rain Indicator
  0,                                      ! Snow Indicator
  21,                                     ! Day of Month
  7,                                      ! Month
  SummerDesignDay,                        ! Day Type
  0,                                      ! Daylight Saving Time Indicator
  Wetbulb,                                ! Humidity Indicating Type
  ,                                       ! Humidity Indicating Day Schedule Name
  DefaultMultipliers,                     ! Dry-Bulb Temperature Range Modifier Type
  ,                                       ! Dry-Bulb Temperature Range Modifier Schedule Name
  ASHRAETau,                              ! Solar Model Indicator
  ,                                       ! Beam Solar Day Schedule Name
  ,                                       ! Diffuse Solar Day Schedule Name
  0.455,                                  ! ASHRAE Taub {dimensionless}
  2.051;                                  ! ASHRAE Taud {dimensionless}

OS:ComponentData,
  {51a97a76-63d8-41da-b5e4-52a3de8dfad4}, ! Handle
  Component Data 1,                       ! Name
  {cd03338f-0793-46da-9734-48b2a3da8e0d}, ! UUID
  {e08ba53a-43fe-4cac-806a-4c3b77c346fa}, ! Version UUID
  1366307381,                             ! Creation Timestamp
  1366307381,                             ! Version Timestamp
  {669c1ed0-f88c-4527-abcd-0b0eac7e0338}; ! Name of Object 1

