
OS:Version,
  {ffe619ae-b74a-4dbd-b495-13aef81fbc13}, ! Handle
  0.9.3;                                  ! Version Identifier

OS:SizingPeriod:DesignDay,
  {3a3570cc-3f96-4954-ae71-7c15fd825616}, ! Handle
  Redwood Falls Muni Ann Htg 99.6% Condns DB, ! Name
  -26.5,                                  ! Maximum Dry-Bulb Temperature {C}
  0,                                      ! Daily Dry-Bulb Temperature Range {deltaC}
  -26.5,                                  ! Humidity Indicating Conditions at Maximum Dry-Bulb {BasedOnField A3}
  97633,                                  ! Barometric Pressure {Pa}
  4.6,                                    ! Wind Speed {m/s}
  300,                                    ! Wind Direction {deg}
  0,                                      ! Sky Clearness
  0,                                      ! Rain Indicator
  0,                                      ! Snow Indicator
  21,                                     ! Day of Month
  1,                                      ! Month
  WinterDesignDay,                        ! Day Type
  0,                                      ! Daylight Saving Time Indicator
  Wetbulb,                                ! Humidity Indicating Type
  ,                                       ! Humidity Indicating Day Schedule Name
  DefaultMultipliers,                     ! Dry-Bulb Temperature Range Modifier Type
  ,                                       ! Dry-Bulb Temperature Range Modifier Schedule Name
  ASHRAEClearSky;                         ! Solar Model Indicator

OS:ComponentData,
  {d611c594-43c9-4504-8082-fa4861a107c5}, ! Handle
  Component Data 1,                       ! Name
  {8f5faeba-31a7-47db-8a0d-4eace43bfb6c}, ! UUID
  {536e0eec-5f38-4ce1-8fad-85aa50794ddd}, ! Version UUID
  1366308379,                             ! Creation Timestamp
  1366308379,                             ! Version Timestamp
  {3a3570cc-3f96-4954-ae71-7c15fd825616}; ! Name of Object 1

