
OS:Version,
  {147762df-9b0f-4df0-a3ef-c948df63f140}, ! Handle
  0.9.3;                                  ! Version Identifier

OS:SizingPeriod:DesignDay,
  {e5fb4d60-f832-4cc6-97cb-e5b7242b6afb}, ! Handle
  Miles City Ann Clg .4% Condns Enth=>MDB, ! Name
  31.7,                                   ! Maximum Dry-Bulb Temperature {C}
  14.9,                                   ! Daily Dry-Bulb Temperature Range {deltaC}
  64300,                                  ! Humidity Indicating Conditions at Maximum Dry-Bulb {BasedOnField A3}
  92065,                                  ! Barometric Pressure {Pa}
  4.7,                                    ! Wind Speed {m/s}
  140,                                    ! Wind Direction {deg}
  0,                                      ! Sky Clearness
  0,                                      ! Rain Indicator
  0,                                      ! Snow Indicator
  21,                                     ! Day of Month
  7,                                      ! Month
  SummerDesignDay,                        ! Day Type
  0,                                      ! Daylight Saving Time Indicator
  Enthalpy,                               ! Humidity Indicating Type
  ,                                       ! Humidity Indicating Day Schedule Name
  DefaultMultipliers,                     ! Dry-Bulb Temperature Range Modifier Type
  ,                                       ! Dry-Bulb Temperature Range Modifier Schedule Name
  ASHRAETau,                              ! Solar Model Indicator
  ,                                       ! Beam Solar Day Schedule Name
  ,                                       ! Diffuse Solar Day Schedule Name
  0.418,                                  ! ASHRAE Taub {dimensionless}
  2.061;                                  ! ASHRAE Taud {dimensionless}

OS:ComponentData,
  {e7cb35bc-4f69-4f0e-b2e9-8f06113f52e1}, ! Handle
  Component Data 1,                       ! Name
  {8cf32bcb-a0e4-40fb-a1d1-b124a26efd1f}, ! UUID
  {ac94459a-e9e0-4c35-bc28-0cdd2f4756bb}, ! Version UUID
  1366308833,                             ! Creation Timestamp
  1366308833,                             ! Version Timestamp
  {e5fb4d60-f832-4cc6-97cb-e5b7242b6afb}; ! Name of Object 1

