
OS:Version,
  {9c38cdf5-c15a-4a42-a46f-378ae14a2d74}, ! Handle
  0.9.3;                                  ! Version Identifier

OS:SizingPeriod:DesignDay,
  {caaeb331-1f59-4fb7-b840-564e462799e1}, ! Handle
  San Jose Intl Ap Ann Clg 1% Condns DP=>MDB, ! Name
  23.9,                                   ! Maximum Dry-Bulb Temperature {C}
  12.1,                                   ! Daily Dry-Bulb Temperature Range {deltaC}
  16.4,                                   ! Humidity Indicating Conditions at Maximum Dry-Bulb {BasedOnField A3}
  101133,                                 ! Barometric Pressure {Pa}
  4.5,                                    ! Wind Speed {m/s}
  320,                                    ! Wind Direction {deg}
  0,                                      ! Sky Clearness
  0,                                      ! Rain Indicator
  0,                                      ! Snow Indicator
  21,                                     ! Day of Month
  7,                                      ! Month
  SummerDesignDay,                        ! Day Type
  0,                                      ! Daylight Saving Time Indicator
  Dewpoint,                               ! Humidity Indicating Type
  ,                                       ! Humidity Indicating Day Schedule Name
  DefaultMultipliers,                     ! Dry-Bulb Temperature Range Modifier Type
  ,                                       ! Dry-Bulb Temperature Range Modifier Schedule Name
  ASHRAETau,                              ! Solar Model Indicator
  ,                                       ! Beam Solar Day Schedule Name
  ,                                       ! Diffuse Solar Day Schedule Name
  0.38,                                   ! ASHRAE Taub {dimensionless}
  2.366;                                  ! ASHRAE Taud {dimensionless}

OS:ComponentData,
  {0722808e-d5b9-477a-bd18-21a9ee0db76c}, ! Handle
  Component Data 1,                       ! Name
  {49dd87a3-3985-4468-afd1-2b8de8c34377}, ! UUID
  {304d927a-32bd-4da8-bcf0-6b9c3f037471}, ! Version UUID
  1366306598,                             ! Creation Timestamp
  1366306598,                             ! Version Timestamp
  {caaeb331-1f59-4fb7-b840-564e462799e1}; ! Name of Object 1

