
OS:Version,
  {56d8b4b7-836f-49a2-8c69-a4751ead2b91}, ! Handle
  0.9.3;                                  ! Version Identifier

OS:SizingPeriod:DesignDay,
  {d2a8146d-8130-4e05-a68f-c89e8b076f2f}, ! Handle
  Waterloo Municipal Ap Ann Hum_n 99.6% Condns DP=>MCDB, ! Name
  -24.7,                                  ! Maximum Dry-Bulb Temperature {C}
  0,                                      ! Daily Dry-Bulb Temperature Range {deltaC}
  -29.1,                                  ! Humidity Indicating Conditions at Maximum Dry-Bulb {BasedOnField A3}
  98193,                                  ! Barometric Pressure {Pa}
  3.9,                                    ! Wind Speed {m/s}
  310,                                    ! Wind Direction {deg}
  0,                                      ! Sky Clearness
  0,                                      ! Rain Indicator
  0,                                      ! Snow Indicator
  21,                                     ! Day of Month
  1,                                      ! Month
  WinterDesignDay,                        ! Day Type
  0,                                      ! Daylight Saving Time Indicator
  Dewpoint,                               ! Humidity Indicating Type
  ,                                       ! Humidity Indicating Day Schedule Name
  DefaultMultipliers,                     ! Dry-Bulb Temperature Range Modifier Type
  ,                                       ! Dry-Bulb Temperature Range Modifier Schedule Name
  ASHRAEClearSky;                         ! Solar Model Indicator

OS:ComponentData,
  {948040b6-7b18-4382-add1-47ee6ce0320b}, ! Handle
  Component Data 1,                       ! Name
  {da88a103-5a6b-4dfa-8e2f-53a2bf29fa32}, ! UUID
  {7f897a69-55a4-4670-b09c-dae54b85c912}, ! Version UUID
  1366307254,                             ! Creation Timestamp
  1366307254,                             ! Version Timestamp
  {d2a8146d-8130-4e05-a68f-c89e8b076f2f}; ! Name of Object 1

