
OS:Version,
  {8d5390c5-e366-4328-ba7b-b4e8f5720585}, ! Handle
  0.9.3;                                  ! Version Identifier

OS:SizingPeriod:DesignDay,
  {5dfb9a13-07cb-4e7c-8048-3d5126b66bd8}, ! Handle
  Willmar Ann Clg 1% Condns Enth=>MDB,    ! Name
  28,                                     ! Maximum Dry-Bulb Temperature {C}
  10.5,                                   ! Daily Dry-Bulb Temperature Range {deltaC}
  71800,                                  ! Humidity Indicating Conditions at Maximum Dry-Bulb {BasedOnField A3}
  97249,                                  ! Barometric Pressure {Pa}
  5,                                      ! Wind Speed {m/s}
  160,                                    ! Wind Direction {deg}
  0,                                      ! Sky Clearness
  0,                                      ! Rain Indicator
  0,                                      ! Snow Indicator
  21,                                     ! Day of Month
  7,                                      ! Month
  SummerDesignDay,                        ! Day Type
  0,                                      ! Daylight Saving Time Indicator
  Enthalpy,                               ! Humidity Indicating Type
  ,                                       ! Humidity Indicating Day Schedule Name
  DefaultMultipliers,                     ! Dry-Bulb Temperature Range Modifier Type
  ,                                       ! Dry-Bulb Temperature Range Modifier Schedule Name
  ASHRAETau,                              ! Solar Model Indicator
  ,                                       ! Beam Solar Day Schedule Name
  ,                                       ! Diffuse Solar Day Schedule Name
  0.398,                                  ! ASHRAE Taub {dimensionless}
  2.251;                                  ! ASHRAE Taud {dimensionless}

OS:ComponentData,
  {f09a0825-91df-4789-b368-b98d0db2c7c6}, ! Handle
  Component Data 1,                       ! Name
  {9f213ba9-3395-434f-9a89-96a83f6f5e0d}, ! UUID
  {9b5ff75a-beac-42a3-b1b4-fe0cf93b565e}, ! Version UUID
  1366308459,                             ! Creation Timestamp
  1366308459,                             ! Version Timestamp
  {5dfb9a13-07cb-4e7c-8048-3d5126b66bd8}; ! Name of Object 1

