
OS:Version,
  {525e173f-ca5e-4141-af29-223a442f3435}, ! Handle
  0.9.3;                                  ! Version Identifier

OS:SizingPeriod:DesignDay,
  {28a2e933-f387-41ca-9ddd-d725028bff54}, ! Handle
  Rochester Ann Clg .4% Condns DB=>MWB,   ! Name
  31.2,                                   ! Maximum Dry-Bulb Temperature {C}
  10.6,                                   ! Daily Dry-Bulb Temperature Range {deltaC}
  23.1,                                   ! Humidity Indicating Conditions at Maximum Dry-Bulb {BasedOnField A3}
  96588,                                  ! Barometric Pressure {Pa}
  6.7,                                    ! Wind Speed {m/s}
  200,                                    ! Wind Direction {deg}
  0,                                      ! Sky Clearness
  0,                                      ! Rain Indicator
  0,                                      ! Snow Indicator
  21,                                     ! Day of Month
  7,                                      ! Month
  SummerDesignDay,                        ! Day Type
  0,                                      ! Daylight Saving Time Indicator
  Wetbulb,                                ! Humidity Indicating Type
  ,                                       ! Humidity Indicating Day Schedule Name
  DefaultMultipliers,                     ! Dry-Bulb Temperature Range Modifier Type
  ,                                       ! Dry-Bulb Temperature Range Modifier Schedule Name
  ASHRAETau,                              ! Solar Model Indicator
  ,                                       ! Beam Solar Day Schedule Name
  ,                                       ! Diffuse Solar Day Schedule Name
  0.404,                                  ! ASHRAE Taub {dimensionless}
  2.226;                                  ! ASHRAE Taud {dimensionless}

OS:ComponentData,
  {4aea1f82-2b61-418a-acb7-1780baa2ab38}, ! Handle
  Component Data 1,                       ! Name
  {1b8b6d9c-3468-4fea-9e0e-9d658a9d9ea4}, ! UUID
  {0e8db4a8-1c23-4124-9bf8-d0bcc2088548}, ! Version UUID
  1366308392,                             ! Creation Timestamp
  1366308392,                             ! Version Timestamp
  {28a2e933-f387-41ca-9ddd-d725028bff54}; ! Name of Object 1

