
OS:Version,
  {3f032a4b-27b5-4ec2-9802-cba2d96f9f19}, ! Handle
  0.9.3;                                  ! Version Identifier

OS:SizingPeriod:DesignDay,
  {44f43d42-9909-476c-b943-6cc7336781c9}, ! Handle
  New York J F Kennedy IntL Ar Ann Htg Wind 99% Condns WS=>MCDB, ! Name
  -2.5,                                   ! Maximum Dry-Bulb Temperature {C}
  0,                                      ! Daily Dry-Bulb Temperature Range {deltaC}
  -2.5,                                   ! Humidity Indicating Conditions at Maximum Dry-Bulb {BasedOnField A3}
  101265,                                 ! Barometric Pressure {Pa}
  12.9,                                   ! Wind Speed {m/s}
  320,                                    ! Wind Direction {deg}
  0,                                      ! Sky Clearness
  0,                                      ! Rain Indicator
  0,                                      ! Snow Indicator
  21,                                     ! Day of Month
  1,                                      ! Month
  WinterDesignDay,                        ! Day Type
  0,                                      ! Daylight Saving Time Indicator
  Wetbulb,                                ! Humidity Indicating Type
  ,                                       ! Humidity Indicating Day Schedule Name
  DefaultMultipliers,                     ! Dry-Bulb Temperature Range Modifier Type
  ,                                       ! Dry-Bulb Temperature Range Modifier Schedule Name
  ASHRAEClearSky;                         ! Solar Model Indicator

OS:ComponentData,
  {cacefd90-ca45-42f8-bb12-6cbfcc44590b}, ! Handle
  Component Data 1,                       ! Name
  {1be3ab11-8a66-4e96-b9c9-fc1b65c2d78c}, ! UUID
  {0b673ca7-dc6a-4b6b-9c99-faaab3a99dcd}, ! Version UUID
  1366309664,                             ! Creation Timestamp
  1366309664,                             ! Version Timestamp
  {44f43d42-9909-476c-b943-6cc7336781c9}; ! Name of Object 1

