
OS:Version,
  {e0d56dfa-1f4e-4231-9b3a-80f8cebca33d}, ! Handle
  0.9.3;                                  ! Version Identifier

OS:SizingPeriod:DesignDay,
  {3460a919-f1b1-4845-bc2f-b156e35da888}, ! Handle
  Texarkana Webb Field Ann Clg .4% Condns Enth=>MDB, ! Name
  32.8,                                   ! Maximum Dry-Bulb Temperature {C}
  10.7,                                   ! Daily Dry-Bulb Temperature Range {deltaC}
  83100,                                  ! Humidity Indicating Conditions at Maximum Dry-Bulb {BasedOnField A3}
  100011,                                 ! Barometric Pressure {Pa}
  3.4,                                    ! Wind Speed {m/s}
  190,                                    ! Wind Direction {deg}
  0,                                      ! Sky Clearness
  0,                                      ! Rain Indicator
  0,                                      ! Snow Indicator
  21,                                     ! Day of Month
  7,                                      ! Month
  SummerDesignDay,                        ! Day Type
  0,                                      ! Daylight Saving Time Indicator
  Enthalpy,                               ! Humidity Indicating Type
  ,                                       ! Humidity Indicating Day Schedule Name
  DefaultMultipliers,                     ! Dry-Bulb Temperature Range Modifier Type
  ,                                       ! Dry-Bulb Temperature Range Modifier Schedule Name
  ASHRAETau,                              ! Solar Model Indicator
  ,                                       ! Beam Solar Day Schedule Name
  ,                                       ! Diffuse Solar Day Schedule Name
  0.486,                                  ! ASHRAE Taub {dimensionless}
  2.004;                                  ! ASHRAE Taud {dimensionless}

