
OS:Version,
  {af550d2b-8b8a-4dc0-9ab9-b3c7a716d82c}, ! Handle
  0.9.3;                                  ! Version Identifier

OS:SizingPeriod:DesignDay,
  {19b070a5-481a-4948-b0d2-7ebfddb3dad4}, ! Handle
  Snohomish Co Ann Clg .4% Condns WB=>MDB, ! Name
  24.4,                                   ! Maximum Dry-Bulb Temperature {C}
  9,                                      ! Daily Dry-Bulb Temperature Range {deltaC}
  18.4,                                   ! Humidity Indicating Conditions at Maximum Dry-Bulb {BasedOnField A3}
  99075,                                  ! Barometric Pressure {Pa}
  3.2,                                    ! Wind Speed {m/s}
  350,                                    ! Wind Direction {deg}
  0,                                      ! Sky Clearness
  0,                                      ! Rain Indicator
  0,                                      ! Snow Indicator
  21,                                     ! Day of Month
  8,                                      ! Month
  SummerDesignDay,                        ! Day Type
  0,                                      ! Daylight Saving Time Indicator
  Wetbulb,                                ! Humidity Indicating Type
  ,                                       ! Humidity Indicating Day Schedule Name
  DefaultMultipliers,                     ! Dry-Bulb Temperature Range Modifier Type
  ,                                       ! Dry-Bulb Temperature Range Modifier Schedule Name
  ASHRAETau,                              ! Solar Model Indicator
  ,                                       ! Beam Solar Day Schedule Name
  ,                                       ! Diffuse Solar Day Schedule Name
  0.351,                                  ! ASHRAE Taub {dimensionless}
  2.554;                                  ! ASHRAE Taud {dimensionless}

OS:ComponentData,
  {36b7b1fd-8983-4ccb-9bb6-50076d2fc2ae}, ! Handle
  Component Data 1,                       ! Name
  {c0366771-69f8-4a14-add9-b7c2adb1d827}, ! UUID
  {4805a513-2254-4e7c-b50b-4c1b72d5d477}, ! Version UUID
  1366311370,                             ! Creation Timestamp
  1366311370,                             ! Version Timestamp
  {19b070a5-481a-4948-b0d2-7ebfddb3dad4}; ! Name of Object 1

