
OS:Version,
  {7959fc12-cfbb-4a97-8602-412fa8d67974}, ! Handle
  0.9.3;                                  ! Version Identifier

OS:SizingPeriod:DesignDay,
  {28d6209a-f2ad-4fbb-a1be-5911f55c8d3b}, ! Handle
  Meridian Ann Clg 1% Condns DP=>MDB,     ! Name
  28.2,                                   ! Maximum Dry-Bulb Temperature {C}
  11.4,                                   ! Daily Dry-Bulb Temperature Range {deltaC}
  24.5,                                   ! Humidity Indicating Conditions at Maximum Dry-Bulb {BasedOnField A3}
  100201,                                 ! Barometric Pressure {Pa}
  3.2,                                    ! Wind Speed {m/s}
  0,                                      ! Wind Direction {deg}
  0,                                      ! Sky Clearness
  0,                                      ! Rain Indicator
  0,                                      ! Snow Indicator
  21,                                     ! Day of Month
  7,                                      ! Month
  SummerDesignDay,                        ! Day Type
  0,                                      ! Daylight Saving Time Indicator
  Dewpoint,                               ! Humidity Indicating Type
  ,                                       ! Humidity Indicating Day Schedule Name
  DefaultMultipliers,                     ! Dry-Bulb Temperature Range Modifier Type
  ,                                       ! Dry-Bulb Temperature Range Modifier Schedule Name
  ASHRAETau,                              ! Solar Model Indicator
  ,                                       ! Beam Solar Day Schedule Name
  ,                                       ! Diffuse Solar Day Schedule Name
  0.552,                                  ! ASHRAE Taub {dimensionless}
  1.818;                                  ! ASHRAE Taud {dimensionless}

OS:ComponentData,
  {09b48d73-a954-4f62-8cd1-78a6bdcddb87}, ! Handle
  Component Data 1,                       ! Name
  {367447aa-8159-4a00-8566-37a408462458}, ! UUID
  {70a9e442-42cd-4f58-a1f3-ce2b684ccf08}, ! Version UUID
  1366308662,                             ! Creation Timestamp
  1366308662,                             ! Version Timestamp
  {28d6209a-f2ad-4fbb-a1be-5911f55c8d3b}; ! Name of Object 1

