
OS:Version,
  {966759d3-8bd0-4359-bf3b-850f0884c4d4}, ! Handle
  0.9.3;                                  ! Version Identifier

OS:SizingPeriod:DesignDay,
  {e6eba614-fda0-46d5-9ef3-c500d65d9c7f}, ! Handle
  Wilmington International Arpt Ann Clg 2% Condns DB=>MWB, ! Name
  31.6,                                   ! Maximum Dry-Bulb Temperature {C}
  8.7,                                    ! Daily Dry-Bulb Temperature Range {deltaC}
  24.8,                                   ! Humidity Indicating Conditions at Maximum Dry-Bulb {BasedOnField A3}
  101217,                                 ! Barometric Pressure {Pa}
  4.4,                                    ! Wind Speed {m/s}
  240,                                    ! Wind Direction {deg}
  0,                                      ! Sky Clearness
  0,                                      ! Rain Indicator
  0,                                      ! Snow Indicator
  21,                                     ! Day of Month
  7,                                      ! Month
  SummerDesignDay,                        ! Day Type
  0,                                      ! Daylight Saving Time Indicator
  Wetbulb,                                ! Humidity Indicating Type
  ,                                       ! Humidity Indicating Day Schedule Name
  DefaultMultipliers,                     ! Dry-Bulb Temperature Range Modifier Type
  ,                                       ! Dry-Bulb Temperature Range Modifier Schedule Name
  ASHRAETau,                              ! Solar Model Indicator
  ,                                       ! Beam Solar Day Schedule Name
  ,                                       ! Diffuse Solar Day Schedule Name
  0.584,                                  ! ASHRAE Taub {dimensionless}
  1.738;                                  ! ASHRAE Taud {dimensionless}

OS:ComponentData,
  {e6ff74cc-9bfe-42c2-9863-654da141bd87}, ! Handle
  Component Data 1,                       ! Name
  {47f9f187-4ac0-4944-ad51-66b86f7994ec}, ! UUID
  {dda4a22f-cbd4-483d-8f62-c2c87cdffd85}, ! Version UUID
  1366308989,                             ! Creation Timestamp
  1366308989,                             ! Version Timestamp
  {e6eba614-fda0-46d5-9ef3-c500d65d9c7f}; ! Name of Object 1

