
OS:Version,
  {8a0cd644-e98e-4bf4-86ec-01e0ef761459}, ! Handle
  0.9.3;                                  ! Version Identifier

OS:SizingPeriod:DesignDay,
  {1ffa48e7-233e-4f3b-aa5d-69c127dc981f}, ! Handle
  New York Laguardia Arpt Ann Clg 2% Condns Enth=>MDB, ! Name
  28,                                     ! Maximum Dry-Bulb Temperature {C}
  7.7,                                    ! Daily Dry-Bulb Temperature Range {deltaC}
  70700,                                  ! Humidity Indicating Conditions at Maximum Dry-Bulb {BasedOnField A3}
  101289,                                 ! Barometric Pressure {Pa}
  5.6,                                    ! Wind Speed {m/s}
  270,                                    ! Wind Direction {deg}
  0,                                      ! Sky Clearness
  0,                                      ! Rain Indicator
  0,                                      ! Snow Indicator
  21,                                     ! Day of Month
  7,                                      ! Month
  SummerDesignDay,                        ! Day Type
  0,                                      ! Daylight Saving Time Indicator
  Enthalpy,                               ! Humidity Indicating Type
  ,                                       ! Humidity Indicating Day Schedule Name
  DefaultMultipliers,                     ! Dry-Bulb Temperature Range Modifier Type
  ,                                       ! Dry-Bulb Temperature Range Modifier Schedule Name
  ASHRAETau,                              ! Solar Model Indicator
  ,                                       ! Beam Solar Day Schedule Name
  ,                                       ! Diffuse Solar Day Schedule Name
  0.532,                                  ! ASHRAE Taub {dimensionless}
  1.821;                                  ! ASHRAE Taud {dimensionless}

