
OS:Version,
  {1d1a6ec4-89b8-49a1-b685-426a4e67cf40}, ! Handle
  0.9.3;                                  ! Version Identifier

OS:SizingPeriod:DesignDay,
  {71a0e1b5-bc69-46c4-be32-e7704ef318b7}, ! Handle
  TUCSON Ann Clg 1% Condns DP=>MDB,       ! Name
  24.8,                                   ! Maximum Dry-Bulb Temperature {C}
  13.8,                                   ! Daily Dry-Bulb Temperature Range {deltaC}
  19.9,                                   ! Humidity Indicating Conditions at Maximum Dry-Bulb {BasedOnField A3}
  92310,                                  ! Barometric Pressure {Pa}
  5,                                      ! Wind Speed {m/s}
  300,                                    ! Wind Direction {deg}
  0,                                      ! Sky Clearness
  0,                                      ! Rain Indicator
  0,                                      ! Snow Indicator
  21,                                     ! Day of Month
  7,                                      ! Month
  SummerDesignDay,                        ! Day Type
  0,                                      ! Daylight Saving Time Indicator
  Dewpoint,                               ! Humidity Indicating Type
  ,                                       ! Humidity Indicating Day Schedule Name
  DefaultMultipliers,                     ! Dry-Bulb Temperature Range Modifier Type
  ,                                       ! Dry-Bulb Temperature Range Modifier Schedule Name
  ASHRAETau,                              ! Solar Model Indicator
  ,                                       ! Beam Solar Day Schedule Name
  ,                                       ! Diffuse Solar Day Schedule Name
  0.555,                                  ! ASHRAE Taub {dimensionless}
  1.73;                                   ! ASHRAE Taud {dimensionless}

OS:ComponentData,
  {b6605071-ee31-4938-91ae-2c1d9a33dfb8}, ! Handle
  Component Data 1,                       ! Name
  {9fdc3eee-48b3-46c4-a906-8c9f91edb08a}, ! UUID
  {020a2d52-889d-4267-b97f-bb7259a09560}, ! Version UUID
  1366306318,                             ! Creation Timestamp
  1366306318,                             ! Version Timestamp
  {71a0e1b5-bc69-46c4-be32-e7704ef318b7}; ! Name of Object 1

