
OS:Version,
  {063903d0-82a8-4d03-aa1b-0c889c6ab065}, ! Handle
  0.9.3;                                  ! Version Identifier

OS:SizingPeriod:DesignDay,
  {a637f1e9-69d0-4f45-af98-b4ec263516b6}, ! Handle
  Univ Of Illinois Wi  Bondvill Ann Clg 2% Condns DP=>MDB, ! Name
  27.1,                                   ! Maximum Dry-Bulb Temperature {C}
  10.8,                                   ! Daily Dry-Bulb Temperature Range {deltaC}
  23,                                     ! Humidity Indicating Conditions at Maximum Dry-Bulb {BasedOnField A3}
  98792,                                  ! Barometric Pressure {Pa}
  5.3,                                    ! Wind Speed {m/s}
  240,                                    ! Wind Direction {deg}
  0,                                      ! Sky Clearness
  0,                                      ! Rain Indicator
  0,                                      ! Snow Indicator
  21,                                     ! Day of Month
  7,                                      ! Month
  SummerDesignDay,                        ! Day Type
  0,                                      ! Daylight Saving Time Indicator
  Dewpoint,                               ! Humidity Indicating Type
  ,                                       ! Humidity Indicating Day Schedule Name
  DefaultMultipliers,                     ! Dry-Bulb Temperature Range Modifier Type
  ,                                       ! Dry-Bulb Temperature Range Modifier Schedule Name
  ASHRAETau,                              ! Solar Model Indicator
  ,                                       ! Beam Solar Day Schedule Name
  ,                                       ! Diffuse Solar Day Schedule Name
  0.458,                                  ! ASHRAE Taub {dimensionless}
  2.034;                                  ! ASHRAE Taud {dimensionless}

OS:ComponentData,
  {e4ab4ba8-073f-4f91-892f-09f06d136df2}, ! Handle
  Component Data 1,                       ! Name
  {f36b4992-2699-42e3-ab36-a5622e93e893}, ! UUID
  {ca624e59-7fcb-43c9-adba-faa10932ad4e}, ! Version UUID
  1366307418,                             ! Creation Timestamp
  1366307418,                             ! Version Timestamp
  {a637f1e9-69d0-4f45-af98-b4ec263516b6}; ! Name of Object 1

