
OS:Version,
  {69145730-11d5-451c-8e36-3252a9dfaea2}, ! Handle
  0.9.3;                                  ! Version Identifier

OS:SizingPeriod:DesignDay,
  {7673b70d-4f12-40b8-b183-d27aabab053a}, ! Handle
  Minot Afb Ann Hum_n 99.6% Condns DP=>MCDB, ! Name
  -28.7,                                  ! Maximum Dry-Bulb Temperature {C}
  0,                                      ! Daily Dry-Bulb Temperature Range {deltaC}
  -33.7,                                  ! Humidity Indicating Conditions at Maximum Dry-Bulb {BasedOnField A3}
  95495,                                  ! Barometric Pressure {Pa}
  5.1,                                    ! Wind Speed {m/s}
  310,                                    ! Wind Direction {deg}
  0,                                      ! Sky Clearness
  0,                                      ! Rain Indicator
  0,                                      ! Snow Indicator
  21,                                     ! Day of Month
  1,                                      ! Month
  WinterDesignDay,                        ! Day Type
  0,                                      ! Daylight Saving Time Indicator
  Dewpoint,                               ! Humidity Indicating Type
  ,                                       ! Humidity Indicating Day Schedule Name
  DefaultMultipliers,                     ! Dry-Bulb Temperature Range Modifier Type
  ,                                       ! Dry-Bulb Temperature Range Modifier Schedule Name
  ASHRAEClearSky;                         ! Solar Model Indicator

OS:ComponentData,
  {fabfa218-7b45-40ce-9018-317589e2d520}, ! Handle
  Component Data 1,                       ! Name
  {9826e7ac-8077-4225-bbe2-a9b525ee33a8}, ! UUID
  {927318ed-5cf5-40cb-b6a5-2f4b18dc153f}, ! Version UUID
  1366309059,                             ! Creation Timestamp
  1366309059,                             ! Version Timestamp
  {7673b70d-4f12-40b8-b183-d27aabab053a}; ! Name of Object 1

