
OS:Version,
  {7509a6ca-9967-4b9a-9aa4-7e8e386af06a}, ! Handle
  0.9.3;                                  ! Version Identifier

OS:SizingPeriod:DesignDay,
  {79d1c710-ab19-4ab8-bd85-22cc5b91885e}, ! Handle
  Riverside Muni Ann Hum_n 99% Condns DP=>MCDB, ! Name
  14.7,                                   ! Maximum Dry-Bulb Temperature {C}
  0,                                      ! Daily Dry-Bulb Temperature Range {deltaC}
  -12.4,                                  ! Humidity Indicating Conditions at Maximum Dry-Bulb {BasedOnField A3}
  98287,                                  ! Barometric Pressure {Pa}
  0.9,                                    ! Wind Speed {m/s}
  140,                                    ! Wind Direction {deg}
  0,                                      ! Sky Clearness
  0,                                      ! Rain Indicator
  0,                                      ! Snow Indicator
  21,                                     ! Day of Month
  12,                                     ! Month
  WinterDesignDay,                        ! Day Type
  0,                                      ! Daylight Saving Time Indicator
  Dewpoint,                               ! Humidity Indicating Type
  ,                                       ! Humidity Indicating Day Schedule Name
  DefaultMultipliers,                     ! Dry-Bulb Temperature Range Modifier Type
  ,                                       ! Dry-Bulb Temperature Range Modifier Schedule Name
  ASHRAEClearSky;                         ! Solar Model Indicator

OS:ComponentData,
  {06e2ed0e-e78f-4f4b-840d-87c6566514cd}, ! Handle
  Component Data 1,                       ! Name
  {e152973a-8ca7-4b5d-8ff1-af92be9447c7}, ! UUID
  {5bfe94fc-b0e0-4e3a-92c3-bbc6a08a2b19}, ! Version UUID
  1366306557,                             ! Creation Timestamp
  1366306557,                             ! Version Timestamp
  {79d1c710-ab19-4ab8-bd85-22cc5b91885e}; ! Name of Object 1

