
OS:Version,
  {85f07aca-098c-4d30-ac22-797f990142c2}, ! Handle
  0.9.3;                                  ! Version Identifier

OS:SizingPeriod:DesignDay,
  {b97e4e25-a72e-4dd5-b417-3c05f5504a70}, ! Handle
  Oklahoma City/Will Rog Ann Clg 1% Condns WB=>MDB, ! Name
  32.2,                                   ! Maximum Dry-Bulb Temperature {C}
  11.7,                                   ! Daily Dry-Bulb Temperature Range {deltaC}
  24.9,                                   ! Humidity Indicating Conditions at Maximum Dry-Bulb {BasedOnField A3}
  96646,                                  ! Barometric Pressure {Pa}
  5.5,                                    ! Wind Speed {m/s}
  170,                                    ! Wind Direction {deg}
  0,                                      ! Sky Clearness
  0,                                      ! Rain Indicator
  0,                                      ! Snow Indicator
  21,                                     ! Day of Month
  7,                                      ! Month
  SummerDesignDay,                        ! Day Type
  0,                                      ! Daylight Saving Time Indicator
  Wetbulb,                                ! Humidity Indicating Type
  ,                                       ! Humidity Indicating Day Schedule Name
  DefaultMultipliers,                     ! Dry-Bulb Temperature Range Modifier Type
  ,                                       ! Dry-Bulb Temperature Range Modifier Schedule Name
  ASHRAETau,                              ! Solar Model Indicator
  ,                                       ! Beam Solar Day Schedule Name
  ,                                       ! Diffuse Solar Day Schedule Name
  0.426,                                  ! ASHRAE Taub {dimensionless}
  2.214;                                  ! ASHRAE Taud {dimensionless}

OS:ComponentData,
  {a27989c4-9c88-4661-8103-d89e88cb432d}, ! Handle
  Component Data 1,                       ! Name
  {0f49ca6b-ca90-4411-b0a4-629e41199015}, ! UUID
  {2abbb47e-0283-4a2b-9e53-902be586ff82}, ! Version UUID
  1366309923,                             ! Creation Timestamp
  1366309923,                             ! Version Timestamp
  {b97e4e25-a72e-4dd5-b417-3c05f5504a70}; ! Name of Object 1

