
OS:Version,
  {f2641456-88a2-490d-8e4a-c5c36db375d3}, ! Handle
  0.9.3;                                  ! Version Identifier

OS:SizingPeriod:DesignDay,
  {535f8747-c386-4bce-9f67-b838041eb375}, ! Handle
  Providence T F Green State Ar Ann Clg 1% Condns Enth=>MDB, ! Name
  27.9,                                   ! Maximum Dry-Bulb Temperature {C}
  9.6,                                    ! Daily Dry-Bulb Temperature Range {deltaC}
  71200,                                  ! Humidity Indicating Conditions at Maximum Dry-Bulb {BasedOnField A3}
  101133,                                 ! Barometric Pressure {Pa}
  5.5,                                    ! Wind Speed {m/s}
  280,                                    ! Wind Direction {deg}
  0,                                      ! Sky Clearness
  0,                                      ! Rain Indicator
  0,                                      ! Snow Indicator
  21,                                     ! Day of Month
  7,                                      ! Month
  SummerDesignDay,                        ! Day Type
  0,                                      ! Daylight Saving Time Indicator
  Enthalpy,                               ! Humidity Indicating Type
  ,                                       ! Humidity Indicating Day Schedule Name
  DefaultMultipliers,                     ! Dry-Bulb Temperature Range Modifier Type
  ,                                       ! Dry-Bulb Temperature Range Modifier Schedule Name
  ASHRAETau,                              ! Solar Model Indicator
  ,                                       ! Beam Solar Day Schedule Name
  ,                                       ! Diffuse Solar Day Schedule Name
  0.507,                                  ! ASHRAE Taub {dimensionless}
  1.885;                                  ! ASHRAE Taud {dimensionless}

OS:ComponentData,
  {ff91d789-9108-4d76-b286-521abeb47cb7}, ! Handle
  Component Data 1,                       ! Name
  {8b43abf3-ab74-4a63-a759-b17b1c0b181b}, ! UUID
  {be8659e1-19f9-4d24-8cd9-50d4d7cc5e65}, ! Version UUID
  1366310304,                             ! Creation Timestamp
  1366310304,                             ! Version Timestamp
  {535f8747-c386-4bce-9f67-b838041eb375}; ! Name of Object 1

