
OS:Version,
  {c7150b2c-0e71-41ca-aedb-a284bc7ec484}, ! Handle
  0.9.3;                                  ! Version Identifier

OS:SizingPeriod:DesignDay,
  {8268197b-929f-425d-a43a-9367f1744607}, ! Handle
  Roanoke Ann Clg .4% Condns WB=>MDB,     ! Name
  30.4,                                   ! Maximum Dry-Bulb Temperature {C}
  10.6,                                   ! Daily Dry-Bulb Temperature Range {deltaC}
  24.1,                                   ! Humidity Indicating Conditions at Maximum Dry-Bulb {BasedOnField A3}
  97098,                                  ! Barometric Pressure {Pa}
  4,                                      ! Wind Speed {m/s}
  280,                                    ! Wind Direction {deg}
  0,                                      ! Sky Clearness
  0,                                      ! Rain Indicator
  0,                                      ! Snow Indicator
  21,                                     ! Day of Month
  7,                                      ! Month
  SummerDesignDay,                        ! Day Type
  0,                                      ! Daylight Saving Time Indicator
  Wetbulb,                                ! Humidity Indicating Type
  ,                                       ! Humidity Indicating Day Schedule Name
  DefaultMultipliers,                     ! Dry-Bulb Temperature Range Modifier Type
  ,                                       ! Dry-Bulb Temperature Range Modifier Schedule Name
  ASHRAETau,                              ! Solar Model Indicator
  ,                                       ! Beam Solar Day Schedule Name
  ,                                       ! Diffuse Solar Day Schedule Name
  0.529,                                  ! ASHRAE Taub {dimensionless}
  1.818;                                  ! ASHRAE Taud {dimensionless}

OS:ComponentData,
  {df0d7fc2-42f0-416a-8e73-d12533155a9d}, ! Handle
  Component Data 1,                       ! Name
  {ff3c5337-ff79-4133-a72a-b062b8d41b1a}, ! UUID
  {889854aa-3f53-4ece-a4c8-fb7e470c0952}, ! Version UUID
  1366311186,                             ! Creation Timestamp
  1366311186,                             ! Version Timestamp
  {8268197b-929f-425d-a43a-9367f1744607}; ! Name of Object 1

