
OS:Version,
  {f2121ce4-ba91-4f73-8653-613a1b72c48c}, ! Handle
  0.9.3;                                  ! Version Identifier

OS:SizingPeriod:DesignDay,
  {fd5f24aa-4d12-4e7b-82b5-af3e95a49ac5}, ! Handle
  Nashville International Ap Ann Hum_n 99% Condns DP=>MCDB, ! Name
  -5.3,                                   ! Maximum Dry-Bulb Temperature {C}
  0,                                      ! Daily Dry-Bulb Temperature Range {deltaC}
  -13.8,                                  ! Humidity Indicating Conditions at Maximum Dry-Bulb {BasedOnField A3}
  99217,                                  ! Barometric Pressure {Pa}
  3.6,                                    ! Wind Speed {m/s}
  0,                                      ! Wind Direction {deg}
  0,                                      ! Sky Clearness
  0,                                      ! Rain Indicator
  0,                                      ! Snow Indicator
  21,                                     ! Day of Month
  1,                                      ! Month
  WinterDesignDay,                        ! Day Type
  0,                                      ! Daylight Saving Time Indicator
  Dewpoint,                               ! Humidity Indicating Type
  ,                                       ! Humidity Indicating Day Schedule Name
  DefaultMultipliers,                     ! Dry-Bulb Temperature Range Modifier Type
  ,                                       ! Dry-Bulb Temperature Range Modifier Schedule Name
  ASHRAEClearSky;                         ! Solar Model Indicator

OS:ComponentData,
  {bf8cdc84-0a18-46ff-af34-ac9166b189da}, ! Handle
  Component Data 1,                       ! Name
  {77423417-e817-4fa5-8f18-7b283479b20b}, ! UUID
  {33ae13d4-a671-42ce-919d-699772c6cad2}, ! Version UUID
  1366310542,                             ! Creation Timestamp
  1366310542,                             ! Version Timestamp
  {fd5f24aa-4d12-4e7b-82b5-af3e95a49ac5}; ! Name of Object 1

