
OS:Version,
  {8fc3bfc7-c0ee-4f50-a56a-fe4822118a5f}, ! Handle
  0.9.3;                                  ! Version Identifier

OS:SizingPeriod:DesignDay,
  {2896f9f3-03b2-4f10-abea-9151eafbeb50}, ! Handle
  Mayport Ns Ann Clg 2% Condns Enth=>MDB, ! Name
  30.6,                                   ! Maximum Dry-Bulb Temperature {C}
  8.3,                                    ! Daily Dry-Bulb Temperature Range {deltaC}
  80900,                                  ! Humidity Indicating Conditions at Maximum Dry-Bulb {BasedOnField A3}
  101265,                                 ! Barometric Pressure {Pa}
  3.3,                                    ! Wind Speed {m/s}
  270,                                    ! Wind Direction {deg}
  0,                                      ! Sky Clearness
  0,                                      ! Rain Indicator
  0,                                      ! Snow Indicator
  21,                                     ! Day of Month
  7,                                      ! Month
  SummerDesignDay,                        ! Day Type
  0,                                      ! Daylight Saving Time Indicator
  Enthalpy,                               ! Humidity Indicating Type
  ,                                       ! Humidity Indicating Day Schedule Name
  DefaultMultipliers,                     ! Dry-Bulb Temperature Range Modifier Type
  ,                                       ! Dry-Bulb Temperature Range Modifier Schedule Name
  ASHRAETau,                              ! Solar Model Indicator
  ,                                       ! Beam Solar Day Schedule Name
  ,                                       ! Diffuse Solar Day Schedule Name
  0.537,                                  ! ASHRAE Taub {dimensionless}
  1.879;                                  ! ASHRAE Taud {dimensionless}

OS:ComponentData,
  {ebffb9fb-449d-4c9e-be5b-3fa37a70499d}, ! Handle
  Component Data 1,                       ! Name
  {bef87491-23ac-4f4f-8eb2-fc2e7906424e}, ! UUID
  {4d3cac34-7cef-41bc-8931-4524c874b727}, ! Version UUID
  1366306851,                             ! Creation Timestamp
  1366306851,                             ! Version Timestamp
  {2896f9f3-03b2-4f10-abea-9151eafbeb50}; ! Name of Object 1

