
OS:Version,
  {07f8a0fa-788d-4277-a1e6-3719e1e247eb}, ! Handle
  0.9.3;                                  ! Version Identifier

OS:SizingPeriod:DesignDay,
  {df8a00eb-d7f9-43e2-a0c8-793fe6a35762}, ! Handle
  Truth or Consequences Ann Clg .4% Condns DP=>MDB, ! Name
  21.1,                                   ! Maximum Dry-Bulb Temperature {C}
  13.9,                                   ! Daily Dry-Bulb Temperature Range {deltaC}
  17.2,                                   ! Humidity Indicating Conditions at Maximum Dry-Bulb {BasedOnField A3}
  84784,                                  ! Barometric Pressure {Pa}
  4.6,                                    ! Wind Speed {m/s}
  170,                                    ! Wind Direction {deg}
  0,                                      ! Sky Clearness
  0,                                      ! Rain Indicator
  0,                                      ! Snow Indicator
  21,                                     ! Day of Month
  7,                                      ! Month
  SummerDesignDay,                        ! Day Type
  0,                                      ! Daylight Saving Time Indicator
  Dewpoint,                               ! Humidity Indicating Type
  ,                                       ! Humidity Indicating Day Schedule Name
  DefaultMultipliers,                     ! Dry-Bulb Temperature Range Modifier Type
  ,                                       ! Dry-Bulb Temperature Range Modifier Schedule Name
  ASHRAETau,                              ! Solar Model Indicator
  ,                                       ! Beam Solar Day Schedule Name
  ,                                       ! Diffuse Solar Day Schedule Name
  0.543,                                  ! ASHRAE Taub {dimensionless}
  1.689;                                  ! ASHRAE Taud {dimensionless}

OS:ComponentData,
  {25b5a6f2-0b95-4448-aeb7-0d0d48d861a7}, ! Handle
  Component Data 1,                       ! Name
  {2394a785-41f9-4862-8cc1-8122df5604d6}, ! UUID
  {4e3378e0-6c85-4d94-bf61-64dc7cc77b26}, ! Version UUID
  1366309444,                             ! Creation Timestamp
  1366309444,                             ! Version Timestamp
  {df8a00eb-d7f9-43e2-a0c8-793fe6a35762}; ! Name of Object 1

