
OS:Version,
  {3425b480-93ce-497f-ac69-542c4dbbdb11}, ! Handle
  0.9.3;                                  ! Version Identifier

OS:SizingPeriod:DesignDay,
  {b2dde21b-da27-44f4-8db6-e42ed1f23486}, ! Handle
  WILKES-BARRE Ann Clg 1% Condns WB=>MDB, ! Name
  27.5,                                   ! Maximum Dry-Bulb Temperature {C}
  10.8,                                   ! Daily Dry-Bulb Temperature Range {deltaC}
  23,                                     ! Humidity Indicating Conditions at Maximum Dry-Bulb {BasedOnField A3}
  97901,                                  ! Barometric Pressure {Pa}
  4.5,                                    ! Wind Speed {m/s}
  240,                                    ! Wind Direction {deg}
  0,                                      ! Sky Clearness
  0,                                      ! Rain Indicator
  0,                                      ! Snow Indicator
  21,                                     ! Day of Month
  7,                                      ! Month
  SummerDesignDay,                        ! Day Type
  0,                                      ! Daylight Saving Time Indicator
  Wetbulb,                                ! Humidity Indicating Type
  ,                                       ! Humidity Indicating Day Schedule Name
  DefaultMultipliers,                     ! Dry-Bulb Temperature Range Modifier Type
  ,                                       ! Dry-Bulb Temperature Range Modifier Schedule Name
  ASHRAETau,                              ! Solar Model Indicator
  ,                                       ! Beam Solar Day Schedule Name
  ,                                       ! Diffuse Solar Day Schedule Name
  0.477,                                  ! ASHRAE Taub {dimensionless}
  1.945;                                  ! ASHRAE Taud {dimensionless}

OS:ComponentData,
  {e80c5aa7-27cc-4786-866c-2cd8e932e53d}, ! Handle
  Component Data 1,                       ! Name
  {e56c41b4-a853-4db9-b720-a270115df899}, ! UUID
  {bbd3a2b4-9138-4ada-8540-5edd96df8fcf}, ! Version UUID
  1366310271,                             ! Creation Timestamp
  1366310271,                             ! Version Timestamp
  {b2dde21b-da27-44f4-8db6-e42ed1f23486}; ! Name of Object 1

