
OS:Version,
  {6f8fd9ca-c158-470d-ab8b-2f243c52699e}, ! Handle
  0.9.3;                                  ! Version Identifier

OS:SizingPeriod:DesignDay,
  {40b68f16-a757-45f8-bd1f-57b42c3ff896}, ! Handle
  Storm Lake Ann Clg 2% Condns Enth=>MDB, ! Name
  29.3,                                   ! Maximum Dry-Bulb Temperature {C}
  10.5,                                   ! Daily Dry-Bulb Temperature Range {deltaC}
  75700,                                  ! Humidity Indicating Conditions at Maximum Dry-Bulb {BasedOnField A3}
  95989,                                  ! Barometric Pressure {Pa}
  5.9,                                    ! Wind Speed {m/s}
  200,                                    ! Wind Direction {deg}
  0,                                      ! Sky Clearness
  0,                                      ! Rain Indicator
  0,                                      ! Snow Indicator
  21,                                     ! Day of Month
  7,                                      ! Month
  SummerDesignDay,                        ! Day Type
  0,                                      ! Daylight Saving Time Indicator
  Enthalpy,                               ! Humidity Indicating Type
  ,                                       ! Humidity Indicating Day Schedule Name
  DefaultMultipliers,                     ! Dry-Bulb Temperature Range Modifier Type
  ,                                       ! Dry-Bulb Temperature Range Modifier Schedule Name
  ASHRAETau,                              ! Solar Model Indicator
  ,                                       ! Beam Solar Day Schedule Name
  ,                                       ! Diffuse Solar Day Schedule Name
  0.399,                                  ! ASHRAE Taub {dimensionless}
  2.249;                                  ! ASHRAE Taud {dimensionless}

OS:ComponentData,
  {61d56e64-7804-436a-b8e4-5abd683e894c}, ! Handle
  Component Data 1,                       ! Name
  {afb4c54e-e909-4110-84c2-36132d7ff8af}, ! UUID
  {284667c8-d081-4a38-8fe0-475479caff10}, ! Version UUID
  1366307246,                             ! Creation Timestamp
  1366307246,                             ! Version Timestamp
  {40b68f16-a757-45f8-bd1f-57b42c3ff896}; ! Name of Object 1

