
OS:Version,
  {8388cd9a-e781-43e5-920b-eeee7a04a701}, ! Handle
  0.9.3;                                  ! Version Identifier

OS:SizingPeriod:DesignDay,
  {704d7482-199d-4b05-9405-11a65b027b7e}, ! Handle
  Seattle Seattle Tacoma Intl A Ann Clg 2% Condns Enth=>MDB, ! Name
  24.4,                                   ! Maximum Dry-Bulb Temperature {C}
  10.4,                                   ! Daily Dry-Bulb Temperature Range {deltaC}
  49100,                                  ! Humidity Indicating Conditions at Maximum Dry-Bulb {BasedOnField A3}
  99868,                                  ! Barometric Pressure {Pa}
  4.2,                                    ! Wind Speed {m/s}
  350,                                    ! Wind Direction {deg}
  0,                                      ! Sky Clearness
  0,                                      ! Rain Indicator
  0,                                      ! Snow Indicator
  21,                                     ! Day of Month
  8,                                      ! Month
  SummerDesignDay,                        ! Day Type
  0,                                      ! Daylight Saving Time Indicator
  Enthalpy,                               ! Humidity Indicating Type
  ,                                       ! Humidity Indicating Day Schedule Name
  DefaultMultipliers,                     ! Dry-Bulb Temperature Range Modifier Type
  ,                                       ! Dry-Bulb Temperature Range Modifier Schedule Name
  ASHRAETau,                              ! Solar Model Indicator
  ,                                       ! Beam Solar Day Schedule Name
  ,                                       ! Diffuse Solar Day Schedule Name
  0.352,                                  ! ASHRAE Taub {dimensionless}
  2.561;                                  ! ASHRAE Taud {dimensionless}

OS:ComponentData,
  {bd319428-c313-417b-8cf1-02fc8319a747}, ! Handle
  Component Data 1,                       ! Name
  {5e91f247-6bc8-4b2d-9ca3-9c30104edbbd}, ! UUID
  {9a24f948-d004-46a0-ba35-647c8fcb3f7d}, ! Version UUID
  1366311366,                             ! Creation Timestamp
  1366311366,                             ! Version Timestamp
  {704d7482-199d-4b05-9405-11a65b027b7e}; ! Name of Object 1

