
OS:Version,
  {a9c45cd0-841b-4a74-ae8f-b28527b781b3}, ! Handle
  0.9.3;                                  ! Version Identifier

OS:SizingPeriod:DesignDay,
  {7cd5822d-f28b-469a-8989-4b086a063b18}, ! Handle
  Prescott Ann Htg 99.6% Condns DB,       ! Name
  -8.1,                                   ! Maximum Dry-Bulb Temperature {C}
  0,                                      ! Daily Dry-Bulb Temperature Range {deltaC}
  -8.1,                                   ! Humidity Indicating Conditions at Maximum Dry-Bulb {BasedOnField A3}
  84173,                                  ! Barometric Pressure {Pa}
  2.3,                                    ! Wind Speed {m/s}
  200,                                    ! Wind Direction {deg}
  0,                                      ! Sky Clearness
  0,                                      ! Rain Indicator
  0,                                      ! Snow Indicator
  21,                                     ! Day of Month
  12,                                     ! Month
  WinterDesignDay,                        ! Day Type
  0,                                      ! Daylight Saving Time Indicator
  Wetbulb,                                ! Humidity Indicating Type
  ,                                       ! Humidity Indicating Day Schedule Name
  DefaultMultipliers,                     ! Dry-Bulb Temperature Range Modifier Type
  ,                                       ! Dry-Bulb Temperature Range Modifier Schedule Name
  ASHRAEClearSky;                         ! Solar Model Indicator

OS:ComponentData,
  {b8351e1e-8f81-4ebd-8645-b0cd6973f66b}, ! Handle
  Component Data 1,                       ! Name
  {f2c1f53b-9f91-4bb7-96dd-428e4d35fbd3}, ! UUID
  {1a9b5795-8d3c-42f8-9d7b-d1cf07ca5d79}, ! Version UUID
  1366306301,                             ! Creation Timestamp
  1366306301,                             ! Version Timestamp
  {7cd5822d-f28b-469a-8989-4b086a063b18}; ! Name of Object 1

