
OS:Version,
  {be2a272f-9ca6-46a9-a15d-d32ac6ccdf3e}, ! Handle
  0.9.3;                                  ! Version Identifier

OS:SizingPeriod:DesignDay,
  {8539d39c-3acd-43b9-995c-9c42cfdbcf04}, ! Handle
  Wilkes Barre Scranton Intl Ap Ann Clg .4% Condns DP=>MDB, ! Name
  26.3,                                   ! Maximum Dry-Bulb Temperature {C}
  10.8,                                   ! Daily Dry-Bulb Temperature Range {deltaC}
  22.3,                                   ! Humidity Indicating Conditions at Maximum Dry-Bulb {BasedOnField A3}
  97959,                                  ! Barometric Pressure {Pa}
  4.5,                                    ! Wind Speed {m/s}
  240,                                    ! Wind Direction {deg}
  0,                                      ! Sky Clearness
  0,                                      ! Rain Indicator
  0,                                      ! Snow Indicator
  21,                                     ! Day of Month
  7,                                      ! Month
  SummerDesignDay,                        ! Day Type
  0,                                      ! Daylight Saving Time Indicator
  Dewpoint,                               ! Humidity Indicating Type
  ,                                       ! Humidity Indicating Day Schedule Name
  DefaultMultipliers,                     ! Dry-Bulb Temperature Range Modifier Type
  ,                                       ! Dry-Bulb Temperature Range Modifier Schedule Name
  ASHRAETau,                              ! Solar Model Indicator
  ,                                       ! Beam Solar Day Schedule Name
  ,                                       ! Diffuse Solar Day Schedule Name
  0.477,                                  ! ASHRAE Taub {dimensionless}
  1.945;                                  ! ASHRAE Taud {dimensionless}

OS:ComponentData,
  {ceaffb37-1938-4754-adc9-753a85dd8e8c}, ! Handle
  Component Data 1,                       ! Name
  {98db1c9d-e9b0-4d17-8596-b2a732292fde}, ! UUID
  {52a5da53-12e7-42c2-99be-bae70bba4b89}, ! Version UUID
  1366310266,                             ! Creation Timestamp
  1366310266,                             ! Version Timestamp
  {8539d39c-3acd-43b9-995c-9c42cfdbcf04}; ! Name of Object 1

