
OS:Version,
  {74ade48e-5530-4668-864a-5ccf9b4293a7}, ! Handle
  0.9.3;                                  ! Version Identifier

OS:SizingPeriod:DesignDay,
  {1ac7bb49-b2b2-4ea2-87d1-19d7c5ff9fff}, ! Handle
  ROCHESTER Ann Clg .4% Condns Enth=>MDB, ! Name
  29.3,                                   ! Maximum Dry-Bulb Temperature {C}
  10.7,                                   ! Daily Dry-Bulb Temperature Range {deltaC}
  73500,                                  ! Humidity Indicating Conditions at Maximum Dry-Bulb {BasedOnField A3}
  99311,                                  ! Barometric Pressure {Pa}
  5.2,                                    ! Wind Speed {m/s}
  240,                                    ! Wind Direction {deg}
  0,                                      ! Sky Clearness
  0,                                      ! Rain Indicator
  0,                                      ! Snow Indicator
  21,                                     ! Day of Month
  7,                                      ! Month
  SummerDesignDay,                        ! Day Type
  0,                                      ! Daylight Saving Time Indicator
  Enthalpy,                               ! Humidity Indicating Type
  ,                                       ! Humidity Indicating Day Schedule Name
  DefaultMultipliers,                     ! Dry-Bulb Temperature Range Modifier Type
  ,                                       ! Dry-Bulb Temperature Range Modifier Schedule Name
  ASHRAETau,                              ! Solar Model Indicator
  ,                                       ! Beam Solar Day Schedule Name
  ,                                       ! Diffuse Solar Day Schedule Name
  0.463,                                  ! ASHRAE Taub {dimensionless}
  2.001;                                  ! ASHRAE Taud {dimensionless}

OS:ComponentData,
  {79b1f794-0dca-4198-a626-951bebfd821f}, ! Handle
  Component Data 1,                       ! Name
  {307b6f40-dc8c-46b3-8efd-f822f41406ac}, ! UUID
  {17086772-bca2-4905-a143-2ade4426e145}, ! Version UUID
  1366309724,                             ! Creation Timestamp
  1366309724,                             ! Version Timestamp
  {1ac7bb49-b2b2-4ea2-87d1-19d7c5ff9fff}; ! Name of Object 1

