
OS:Version,
  {86ae3fd3-8a99-4562-a8cc-6945fdabceeb}, ! Handle
  0.9.3;                                  ! Version Identifier

OS:SizingPeriod:DesignDay,
  {98cf18bb-24ea-44a8-a951-2ea4b1a83b89}, ! Handle
  St Louis Lambert IntL Arpt Ann Htg 99.6% Condns DB, ! Name
  -15.5,                                  ! Maximum Dry-Bulb Temperature {C}
  0,                                      ! Daily Dry-Bulb Temperature Range {deltaC}
  -15.5,                                  ! Humidity Indicating Conditions at Maximum Dry-Bulb {BasedOnField A3}
  99264,                                  ! Barometric Pressure {Pa}
  4.7,                                    ! Wind Speed {m/s}
  300,                                    ! Wind Direction {deg}
  0,                                      ! Sky Clearness
  0,                                      ! Rain Indicator
  0,                                      ! Snow Indicator
  21,                                     ! Day of Month
  1,                                      ! Month
  WinterDesignDay,                        ! Day Type
  0,                                      ! Daylight Saving Time Indicator
  Wetbulb,                                ! Humidity Indicating Type
  ,                                       ! Humidity Indicating Day Schedule Name
  DefaultMultipliers,                     ! Dry-Bulb Temperature Range Modifier Type
  ,                                       ! Dry-Bulb Temperature Range Modifier Schedule Name
  ASHRAEClearSky;                         ! Solar Model Indicator

OS:ComponentData,
  {a2f603b6-3978-4c5d-aa8d-d88559bb0e36}, ! Handle
  Component Data 1,                       ! Name
  {382e609a-a7e0-4c2f-9934-8e1f0327cba1}, ! UUID
  {034d2736-0782-46e6-8190-b7a400312dbe}, ! Version UUID
  1366308583,                             ! Creation Timestamp
  1366308583,                             ! Version Timestamp
  {98cf18bb-24ea-44a8-a951-2ea4b1a83b89}; ! Name of Object 1

