
OS:Version,
  {9fca1fb2-f5de-4317-8b88-304ad24d10cd}, ! Handle
  0.9.3;                                  ! Version Identifier

OS:SizingPeriod:DesignDay,
  {18089165-a40e-4f1c-9a5d-e9b01110ec90}, ! Handle
  New Orleans Intl Arpt Ann Clg 1% Condns DP=>MDB, ! Name
  28.8,                                   ! Maximum Dry-Bulb Temperature {C}
  8.5,                                    ! Daily Dry-Bulb Temperature Range {deltaC}
  25.5,                                   ! Humidity Indicating Conditions at Maximum Dry-Bulb {BasedOnField A3}
  101313,                                 ! Barometric Pressure {Pa}
  3.4,                                    ! Wind Speed {m/s}
  0,                                      ! Wind Direction {deg}
  0,                                      ! Sky Clearness
  0,                                      ! Rain Indicator
  0,                                      ! Snow Indicator
  21,                                     ! Day of Month
  8,                                      ! Month
  SummerDesignDay,                        ! Day Type
  0,                                      ! Daylight Saving Time Indicator
  Dewpoint,                               ! Humidity Indicating Type
  ,                                       ! Humidity Indicating Day Schedule Name
  DefaultMultipliers,                     ! Dry-Bulb Temperature Range Modifier Type
  ,                                       ! Dry-Bulb Temperature Range Modifier Schedule Name
  ASHRAETau,                              ! Solar Model Indicator
  ,                                       ! Beam Solar Day Schedule Name
  ,                                       ! Diffuse Solar Day Schedule Name
  0.553,                                  ! ASHRAE Taub {dimensionless}
  1.821;                                  ! ASHRAE Taud {dimensionless}

OS:ComponentData,
  {7b6b2084-9bc4-4599-beac-5476c654dee8}, ! Handle
  Component Data 1,                       ! Name
  {cc18c297-6b0b-4a62-b3b2-a43aea0df268}, ! UUID
  {eec59d41-8865-4a50-86ab-055f48ecea22}, ! Version UUID
  1366307755,                             ! Creation Timestamp
  1366307755,                             ! Version Timestamp
  {18089165-a40e-4f1c-9a5d-e9b01110ec90}; ! Name of Object 1

