
OS:Version,
  {085d55f2-bdd5-4548-8bf5-6a09a0719b84}, ! Handle
  0.9.3;                                  ! Version Identifier

OS:SizingPeriod:DesignDay,
  {38aa1038-20e6-438a-82ae-fbc45b89a334}, ! Handle
  NASHVILLE Ann Htg 99% Condns DB,        ! Name
  -7.6,                                   ! Maximum Dry-Bulb Temperature {C}
  0,                                      ! Daily Dry-Bulb Temperature Range {deltaC}
  -7.6,                                   ! Humidity Indicating Conditions at Maximum Dry-Bulb {BasedOnField A3}
  99181,                                  ! Barometric Pressure {Pa}
  3.6,                                    ! Wind Speed {m/s}
  0,                                      ! Wind Direction {deg}
  0,                                      ! Sky Clearness
  0,                                      ! Rain Indicator
  0,                                      ! Snow Indicator
  21,                                     ! Day of Month
  1,                                      ! Month
  WinterDesignDay,                        ! Day Type
  0,                                      ! Daylight Saving Time Indicator
  Wetbulb,                                ! Humidity Indicating Type
  ,                                       ! Humidity Indicating Day Schedule Name
  DefaultMultipliers,                     ! Dry-Bulb Temperature Range Modifier Type
  ,                                       ! Dry-Bulb Temperature Range Modifier Schedule Name
  ASHRAEClearSky;                         ! Solar Model Indicator

OS:ComponentData,
  {1aef65d6-a7aa-4c0d-b5de-aec002d68de2}, ! Handle
  Component Data 1,                       ! Name
  {c9021ba5-6d97-4385-a6bc-5d1acd53a5fe}, ! UUID
  {c196a9ee-a8d9-4387-a119-e4ce36e9d895}, ! Version UUID
  1366310532,                             ! Creation Timestamp
  1366310532,                             ! Version Timestamp
  {38aa1038-20e6-438a-82ae-fbc45b89a334}; ! Name of Object 1

