
OS:Version,
  {c19b6e51-f0bd-416e-a456-f8c8b9b2851f}, ! Handle
  0.9.3;                                  ! Version Identifier

OS:SizingPeriod:DesignDay,
  {91668303-93e7-4e77-bee5-4269e1584984}, ! Handle
  San Antonio Intl Ap Ann Clg 2% Condns Enth=>MDB, ! Name
  30,                                     ! Maximum Dry-Bulb Temperature {C}
  11.2,                                   ! Daily Dry-Bulb Temperature Range {deltaC}
  76600,                                  ! Humidity Indicating Conditions at Maximum Dry-Bulb {BasedOnField A3}
  98393,                                  ! Barometric Pressure {Pa}
  4.3,                                    ! Wind Speed {m/s}
  160,                                    ! Wind Direction {deg}
  0,                                      ! Sky Clearness
  0,                                      ! Rain Indicator
  0,                                      ! Snow Indicator
  21,                                     ! Day of Month
  8,                                      ! Month
  SummerDesignDay,                        ! Day Type
  0,                                      ! Daylight Saving Time Indicator
  Enthalpy,                               ! Humidity Indicating Type
  ,                                       ! Humidity Indicating Day Schedule Name
  DefaultMultipliers,                     ! Dry-Bulb Temperature Range Modifier Type
  ,                                       ! Dry-Bulb Temperature Range Modifier Schedule Name
  ASHRAETau,                              ! Solar Model Indicator
  ,                                       ! Beam Solar Day Schedule Name
  ,                                       ! Diffuse Solar Day Schedule Name
  0.449,                                  ! ASHRAE Taub {dimensionless}
  2.144;                                  ! ASHRAE Taud {dimensionless}

OS:ComponentData,
  {32a3ab59-11ee-4f11-a62d-355227c7a203}, ! Handle
  Component Data 1,                       ! Name
  {297a94ec-12b4-4379-908b-a622df706ca4}, ! UUID
  {fd9ef2c9-4ed3-4e48-9dc0-a9fe1d934dd6}, ! Version UUID
  1366310899,                             ! Creation Timestamp
  1366310899,                             ! Version Timestamp
  {91668303-93e7-4e77-bee5-4269e1584984}; ! Name of Object 1

