
OS:Version,
  {5cebb099-72cf-4c6a-9128-41f12f08c618}, ! Handle
  0.9.3;                                  ! Version Identifier

OS:SizingPeriod:DesignDay,
  {1f2e38fb-19b1-40c2-94cd-32034a10b703}, ! Handle
  Owatonna  Awos Ann Clg 2% Condns WB=>MDB, ! Name
  27,                                     ! Maximum Dry-Bulb Temperature {C}
  10.6,                                   ! Daily Dry-Bulb Temperature Range {deltaC}
  23.4,                                   ! Humidity Indicating Conditions at Maximum Dry-Bulb {BasedOnField A3}
  97190,                                  ! Barometric Pressure {Pa}
  5.6,                                    ! Wind Speed {m/s}
  170,                                    ! Wind Direction {deg}
  0,                                      ! Sky Clearness
  0,                                      ! Rain Indicator
  0,                                      ! Snow Indicator
  21,                                     ! Day of Month
  7,                                      ! Month
  SummerDesignDay,                        ! Day Type
  0,                                      ! Daylight Saving Time Indicator
  Wetbulb,                                ! Humidity Indicating Type
  ,                                       ! Humidity Indicating Day Schedule Name
  DefaultMultipliers,                     ! Dry-Bulb Temperature Range Modifier Type
  ,                                       ! Dry-Bulb Temperature Range Modifier Schedule Name
  ASHRAETau,                              ! Solar Model Indicator
  ,                                       ! Beam Solar Day Schedule Name
  ,                                       ! Diffuse Solar Day Schedule Name
  0.411,                                  ! ASHRAE Taub {dimensionless}
  2.201;                                  ! ASHRAE Taud {dimensionless}

OS:ComponentData,
  {4cb10da5-da6c-47fc-bc21-89dd4d1df036}, ! Handle
  Component Data 1,                       ! Name
  {f0d87842-0972-4d93-9736-29fac56e4bcd}, ! UUID
  {0320e167-6c78-4f19-a6f0-10bb3e271e73}, ! Version UUID
  1366308354,                             ! Creation Timestamp
  1366308354,                             ! Version Timestamp
  {1f2e38fb-19b1-40c2-94cd-32034a10b703}; ! Name of Object 1

