
OS:Version,
  {35ba2746-8fc0-4246-8d4c-53a116701fe7}, ! Handle
  0.9.3;                                  ! Version Identifier

OS:SizingPeriod:DesignDay,
  {74575fc7-2966-49d0-aa03-2dece8b44bd9}, ! Handle
  South St Paul Muni Ann Clg 2% Condns Enth=>MDB, ! Name
  27.5,                                   ! Maximum Dry-Bulb Temperature {C}
  10.1,                                   ! Daily Dry-Bulb Temperature Range {deltaC}
  68700,                                  ! Humidity Indicating Conditions at Maximum Dry-Bulb {BasedOnField A3}
  98358,                                  ! Barometric Pressure {Pa}
  3.3,                                    ! Wind Speed {m/s}
  180,                                    ! Wind Direction {deg}
  0,                                      ! Sky Clearness
  0,                                      ! Rain Indicator
  0,                                      ! Snow Indicator
  21,                                     ! Day of Month
  7,                                      ! Month
  SummerDesignDay,                        ! Day Type
  0,                                      ! Daylight Saving Time Indicator
  Enthalpy,                               ! Humidity Indicating Type
  ,                                       ! Humidity Indicating Day Schedule Name
  DefaultMultipliers,                     ! Dry-Bulb Temperature Range Modifier Type
  ,                                       ! Dry-Bulb Temperature Range Modifier Schedule Name
  ASHRAETau,                              ! Solar Model Indicator
  ,                                       ! Beam Solar Day Schedule Name
  ,                                       ! Diffuse Solar Day Schedule Name
  0.416,                                  ! ASHRAE Taub {dimensionless}
  2.183;                                  ! ASHRAE Taud {dimensionless}

OS:ComponentData,
  {7a7f1838-cc2b-40aa-951d-b38c39274482}, ! Handle
  Component Data 1,                       ! Name
  {b1311288-c373-4f83-b931-617d1e1e3ff5}, ! UUID
  {d200c495-87e8-499d-bbeb-87cb0ac365a1}, ! Version UUID
  1366308424,                             ! Creation Timestamp
  1366308424,                             ! Version Timestamp
  {74575fc7-2966-49d0-aa03-2dece8b44bd9}; ! Name of Object 1

