
OS:Version,
  {f77b281d-4eb7-4b81-8b37-3a65dabf0cd8}, ! Handle
  0.9.3;                                  ! Version Identifier

OS:SizingPeriod:DesignDay,
  {66519bf6-93e5-4d6a-8d87-2e08f9eac5c9}, ! Handle
  PHILADELPHIA Ann Clg 1% Condns DB=>MWB, ! Name
  32.2,                                   ! Maximum Dry-Bulb Temperature {C}
  10.5,                                   ! Daily Dry-Bulb Temperature Range {deltaC}
  23.2,                                   ! Humidity Indicating Conditions at Maximum Dry-Bulb {BasedOnField A3}
  101217,                                 ! Barometric Pressure {Pa}
  2.5,                                    ! Wind Speed {m/s}
  270,                                    ! Wind Direction {deg}
  0,                                      ! Sky Clearness
  0,                                      ! Rain Indicator
  0,                                      ! Snow Indicator
  21,                                     ! Day of Month
  7,                                      ! Month
  SummerDesignDay,                        ! Day Type
  0,                                      ! Daylight Saving Time Indicator
  Wetbulb,                                ! Humidity Indicating Type
  ,                                       ! Humidity Indicating Day Schedule Name
  DefaultMultipliers,                     ! Dry-Bulb Temperature Range Modifier Type
  ,                                       ! Dry-Bulb Temperature Range Modifier Schedule Name
  ASHRAETau,                              ! Solar Model Indicator
  ,                                       ! Beam Solar Day Schedule Name
  ,                                       ! Diffuse Solar Day Schedule Name
  0.524,                                  ! ASHRAE Taub {dimensionless}
  1.834;                                  ! ASHRAE Taud {dimensionless}

OS:ComponentData,
  {926953f2-1db8-4471-8259-e8814376ba99}, ! Handle
  Component Data 1,                       ! Name
  {2213c844-10e7-4a91-81f4-e102cb1dc9bf}, ! UUID
  {df1e1b7a-53bb-43b3-96fe-d439c3aef018}, ! Version UUID
  1366310214,                             ! Creation Timestamp
  1366310214,                             ! Version Timestamp
  {66519bf6-93e5-4d6a-8d87-2e08f9eac5c9}; ! Name of Object 1

