
OS:Version,
  {94a480f7-d842-4f00-bd9e-8dcf0c9c888e}, ! Handle
  0.9.3;                                  ! Version Identifier

OS:SizingPeriod:DesignDay,
  {5acec569-8a44-4951-9cec-3842a1d9704c}, ! Handle
  MIAMI Ann Hum_n 99.6% Condns DP=>MCDB,  ! Name
  12.4,                                   ! Maximum Dry-Bulb Temperature {C}
  0,                                      ! Daily Dry-Bulb Temperature Range {deltaC}
  -0.1,                                   ! Humidity Indicating Conditions at Maximum Dry-Bulb {BasedOnField A3}
  101301,                                 ! Barometric Pressure {Pa}
  3.8,                                    ! Wind Speed {m/s}
  340,                                    ! Wind Direction {deg}
  0,                                      ! Sky Clearness
  0,                                      ! Rain Indicator
  0,                                      ! Snow Indicator
  21,                                     ! Day of Month
  1,                                      ! Month
  WinterDesignDay,                        ! Day Type
  0,                                      ! Daylight Saving Time Indicator
  Dewpoint,                               ! Humidity Indicating Type
  ,                                       ! Humidity Indicating Day Schedule Name
  DefaultMultipliers,                     ! Dry-Bulb Temperature Range Modifier Type
  ,                                       ! Dry-Bulb Temperature Range Modifier Schedule Name
  ASHRAEClearSky;                         ! Solar Model Indicator

OS:ComponentData,
  {95012d6e-2978-4ffa-8973-963051314dd7}, ! Handle
  Component Data 1,                       ! Name
  {eb817d03-ba66-4367-ab0f-3b9905306d29}, ! UUID
  {b7576d55-96e4-447c-90bb-518b6c6539e7}, ! Version UUID
  1366306860,                             ! Creation Timestamp
  1366306860,                             ! Version Timestamp
  {5acec569-8a44-4951-9cec-3842a1d9704c}; ! Name of Object 1

