
OS:Version,
  {a4eaaac6-dcac-44f5-9b14-61c5ee523db5}, ! Handle
  0.9.3;                                  ! Version Identifier

OS:SizingPeriod:DesignDay,
  {90ebba71-77ae-4c7d-9567-c7dbddec6b09}, ! Handle
  Yuma Ann Clg 1% Condns DB=>MWB,         ! Name
  42.6,                                   ! Maximum Dry-Bulb Temperature {C}
  13.1,                                   ! Daily Dry-Bulb Temperature Range {deltaC}
  22.9,                                   ! Humidity Indicating Conditions at Maximum Dry-Bulb {BasedOnField A3}
  100582,                                 ! Barometric Pressure {Pa}
  3.3,                                    ! Wind Speed {m/s}
  270,                                    ! Wind Direction {deg}
  0,                                      ! Sky Clearness
  0,                                      ! Rain Indicator
  0,                                      ! Snow Indicator
  21,                                     ! Day of Month
  7,                                      ! Month
  SummerDesignDay,                        ! Day Type
  0,                                      ! Daylight Saving Time Indicator
  Wetbulb,                                ! Humidity Indicating Type
  ,                                       ! Humidity Indicating Day Schedule Name
  DefaultMultipliers,                     ! Dry-Bulb Temperature Range Modifier Type
  ,                                       ! Dry-Bulb Temperature Range Modifier Schedule Name
  ASHRAETau,                              ! Solar Model Indicator
  ,                                       ! Beam Solar Day Schedule Name
  ,                                       ! Diffuse Solar Day Schedule Name
  0.533,                                  ! ASHRAE Taub {dimensionless}
  1.764;                                  ! ASHRAE Taud {dimensionless}

OS:ComponentData,
  {4bdb58d0-0923-44e5-b213-fb0da1f38829}, ! Handle
  Component Data 1,                       ! Name
  {8b8b62e4-40eb-4742-867c-56f16e65fc6e}, ! UUID
  {ce6c8dcc-4486-4fff-9adc-b848277b1254}, ! Version UUID
  1366306334,                             ! Creation Timestamp
  1366306334,                             ! Version Timestamp
  {90ebba71-77ae-4c7d-9567-c7dbddec6b09}; ! Name of Object 1

