
OS:Version,
  {7bbbd687-3438-49a6-b7f4-362278f60902}, ! Handle
  0.9.3;                                  ! Version Identifier

OS:SizingPeriod:DesignDay,
  {f96746a8-af69-43aa-965c-b58c7879eafa}, ! Handle
  Mobridge Ann Clg .4% Condns DP=>MDB,    ! Name
  27.8,                                   ! Maximum Dry-Bulb Temperature {C}
  12.5,                                   ! Daily Dry-Bulb Temperature Range {deltaC}
  22,                                     ! Humidity Indicating Conditions at Maximum Dry-Bulb {BasedOnField A3}
  95369,                                  ! Barometric Pressure {Pa}
  5.7,                                    ! Wind Speed {m/s}
  150,                                    ! Wind Direction {deg}
  0,                                      ! Sky Clearness
  0,                                      ! Rain Indicator
  0,                                      ! Snow Indicator
  21,                                     ! Day of Month
  7,                                      ! Month
  SummerDesignDay,                        ! Day Type
  0,                                      ! Daylight Saving Time Indicator
  Dewpoint,                               ! Humidity Indicating Type
  ,                                       ! Humidity Indicating Day Schedule Name
  DefaultMultipliers,                     ! Dry-Bulb Temperature Range Modifier Type
  ,                                       ! Dry-Bulb Temperature Range Modifier Schedule Name
  ASHRAETau,                              ! Solar Model Indicator
  ,                                       ! Beam Solar Day Schedule Name
  ,                                       ! Diffuse Solar Day Schedule Name
  0.406,                                  ! ASHRAE Taub {dimensionless}
  2.187;                                  ! ASHRAE Taud {dimensionless}

OS:ComponentData,
  {c00a7641-2266-4bb3-a8cf-dca106e467de}, ! Handle
  Component Data 1,                       ! Name
  {3461efce-c4ca-488d-98ae-49560150b397}, ! UUID
  {008b4163-e9e3-49ce-bf35-6e23f18d5d7e}, ! Version UUID
  1366310418,                             ! Creation Timestamp
  1366310418,                             ! Version Timestamp
  {f96746a8-af69-43aa-965c-b58c7879eafa}; ! Name of Object 1

