
OS:Version,
  {ffca3ebe-8fb6-451e-aeea-fdcc368f24b0}, ! Handle
  0.9.3;                                  ! Version Identifier

OS:SizingPeriod:DesignDay,
  {7bf46ab1-46bc-47fa-b79d-d884351d3971}, ! Handle
  Watertown Ann Clg .4% Condns DP=>MDB,   ! Name
  28.7,                                   ! Maximum Dry-Bulb Temperature {C}
  11.3,                                   ! Daily Dry-Bulb Temperature Range {deltaC}
  26.1,                                   ! Humidity Indicating Conditions at Maximum Dry-Bulb {BasedOnField A3}
  98311,                                  ! Barometric Pressure {Pa}
  4.5,                                    ! Wind Speed {m/s}
  220,                                    ! Wind Direction {deg}
  0,                                      ! Sky Clearness
  0,                                      ! Rain Indicator
  0,                                      ! Snow Indicator
  21,                                     ! Day of Month
  7,                                      ! Month
  SummerDesignDay,                        ! Day Type
  0,                                      ! Daylight Saving Time Indicator
  Dewpoint,                               ! Humidity Indicating Type
  ,                                       ! Humidity Indicating Day Schedule Name
  DefaultMultipliers,                     ! Dry-Bulb Temperature Range Modifier Type
  ,                                       ! Dry-Bulb Temperature Range Modifier Schedule Name
  ASHRAETau,                              ! Solar Model Indicator
  ,                                       ! Beam Solar Day Schedule Name
  ,                                       ! Diffuse Solar Day Schedule Name
  0.44,                                   ! ASHRAE Taub {dimensionless}
  2.094;                                  ! ASHRAE Taud {dimensionless}

OS:ComponentData,
  {c1e55660-36dc-4b27-a686-916487ee2efc}, ! Handle
  Component Data 1,                       ! Name
  {d3b34ac9-3d09-42e7-9f62-bbfc359e8635}, ! UUID
  {107e2412-b8c5-48ff-92bb-63cd1a9adde3}, ! Version UUID
  1366311592,                             ! Creation Timestamp
  1366311592,                             ! Version Timestamp
  {7bf46ab1-46bc-47fa-b79d-d884351d3971}; ! Name of Object 1

