
OS:Version,
  {5f8c7ae2-3e3a-4a23-acde-0f4832850cf1}, ! Handle
  0.9.3;                                  ! Version Identifier

OS:SizingPeriod:DesignDay,
  {ec3ef870-5042-4406-8d8c-ad83cc412f5f}, ! Handle
  Valparaiso Hurlburt Ann Clg 2% Condns DB=>MWB, ! Name
  32.1,                                   ! Maximum Dry-Bulb Temperature {C}
  8.2,                                    ! Daily Dry-Bulb Temperature Range {deltaC}
  25.4,                                   ! Humidity Indicating Conditions at Maximum Dry-Bulb {BasedOnField A3}
  101181,                                 ! Barometric Pressure {Pa}
  4.3,                                    ! Wind Speed {m/s}
  210,                                    ! Wind Direction {deg}
  0,                                      ! Sky Clearness
  0,                                      ! Rain Indicator
  0,                                      ! Snow Indicator
  21,                                     ! Day of Month
  7,                                      ! Month
  SummerDesignDay,                        ! Day Type
  0,                                      ! Daylight Saving Time Indicator
  Wetbulb,                                ! Humidity Indicating Type
  ,                                       ! Humidity Indicating Day Schedule Name
  DefaultMultipliers,                     ! Dry-Bulb Temperature Range Modifier Type
  ,                                       ! Dry-Bulb Temperature Range Modifier Schedule Name
  ASHRAETau,                              ! Solar Model Indicator
  ,                                       ! Beam Solar Day Schedule Name
  ,                                       ! Diffuse Solar Day Schedule Name
  0.528,                                  ! ASHRAE Taub {dimensionless}
  1.902;                                  ! ASHRAE Taud {dimensionless}

OS:ComponentData,
  {fbf62787-e24c-4aeb-b68d-adf7b27faa6b}, ! Handle
  Component Data 1,                       ! Name
  {a6471dbb-3bd4-4851-b0b0-c5d6f0906a9c}, ! UUID
  {a076a6ed-b9e7-4d25-8547-494943dda844}, ! Version UUID
  1366306806,                             ! Creation Timestamp
  1366306806,                             ! Version Timestamp
  {ec3ef870-5042-4406-8d8c-ad83cc412f5f}; ! Name of Object 1

