
OS:Version,
  {79fed51c-4250-4beb-85f2-0aacd26e0683}, ! Handle
  0.9.3;                                  ! Version Identifier

OS:SizingPeriod:DesignDay,
  {185ebe91-4880-48ac-93c1-24bae1c8cc43}, ! Handle
  Sterling Rockfalls Ann Htg 99% Condns DB, ! Name
  -17.5,                                  ! Maximum Dry-Bulb Temperature {C}
  0,                                      ! Daily Dry-Bulb Temperature Range {deltaC}
  -17.5,                                  ! Humidity Indicating Conditions at Maximum Dry-Bulb {BasedOnField A3}
  98981,                                  ! Barometric Pressure {Pa}
  3.5,                                    ! Wind Speed {m/s}
  280,                                    ! Wind Direction {deg}
  0,                                      ! Sky Clearness
  0,                                      ! Rain Indicator
  0,                                      ! Snow Indicator
  21,                                     ! Day of Month
  1,                                      ! Month
  WinterDesignDay,                        ! Day Type
  0,                                      ! Daylight Saving Time Indicator
  Wetbulb,                                ! Humidity Indicating Type
  ,                                       ! Humidity Indicating Day Schedule Name
  DefaultMultipliers,                     ! Dry-Bulb Temperature Range Modifier Type
  ,                                       ! Dry-Bulb Temperature Range Modifier Schedule Name
  ASHRAEClearSky;                         ! Solar Model Indicator

