
OS:Version,
  {f54f0756-7089-46b1-b337-53f387014b74}, ! Handle
  0.9.3;                                  ! Version Identifier

OS:SizingPeriod:DesignDay,
  {5815ad81-04d1-4ed1-b00b-11d03071097f}, ! Handle
  Petersburg Ann Clg 2% Condns DB=>MWB,   ! Name
  17.6,                                   ! Maximum Dry-Bulb Temperature {C}
  6.1,                                    ! Daily Dry-Bulb Temperature Range {deltaC}
  12.9,                                   ! Humidity Indicating Conditions at Maximum Dry-Bulb {BasedOnField A3}
  100929,                                 ! Barometric Pressure {Pa}
  2.7,                                    ! Wind Speed {m/s}
  70,                                     ! Wind Direction {deg}
  0,                                      ! Sky Clearness
  0,                                      ! Rain Indicator
  0,                                      ! Snow Indicator
  21,                                     ! Day of Month
  7,                                      ! Month
  SummerDesignDay,                        ! Day Type
  0,                                      ! Daylight Saving Time Indicator
  Wetbulb,                                ! Humidity Indicating Type
  ,                                       ! Humidity Indicating Day Schedule Name
  DefaultMultipliers,                     ! Dry-Bulb Temperature Range Modifier Type
  ,                                       ! Dry-Bulb Temperature Range Modifier Schedule Name
  ASHRAETau,                              ! Solar Model Indicator
  ,                                       ! Beam Solar Day Schedule Name
  ,                                       ! Diffuse Solar Day Schedule Name
  0.393,                                  ! ASHRAE Taub {dimensionless}
  2.173;                                  ! ASHRAE Taud {dimensionless}

OS:ComponentData,
  {4b72b48c-16e0-4699-ab2d-614e48749f45}, ! Handle
  Component Data 1,                       ! Name
  {f64953f9-7753-4f98-9f38-bd09e5d61636}, ! UUID
  {f6ef9a61-d8b2-4699-be60-cf3358550f5d}, ! Version UUID
  1366305483,                             ! Creation Timestamp
  1366305483,                             ! Version Timestamp
  {5815ad81-04d1-4ed1-b00b-11d03071097f}; ! Name of Object 1

