
OS:Version,
  {7daa3774-45c2-4584-b654-567de57cc181}, ! Handle
  0.9.3;                                  ! Version Identifier

OS:SizingPeriod:DesignDay,
  {b30d1fd2-38aa-4ef4-9763-7c8d2e217512}, ! Handle
  Mount Vernon  Awos Ann Clg 2% Condns DB=>MWB, ! Name
  32.1,                                   ! Maximum Dry-Bulb Temperature {C}
  11,                                     ! Daily Dry-Bulb Temperature Range {deltaC}
  24.1,                                   ! Humidity Indicating Conditions at Maximum Dry-Bulb {BasedOnField A3}
  99583,                                  ! Barometric Pressure {Pa}
  3.9,                                    ! Wind Speed {m/s}
  200,                                    ! Wind Direction {deg}
  0,                                      ! Sky Clearness
  0,                                      ! Rain Indicator
  0,                                      ! Snow Indicator
  21,                                     ! Day of Month
  7,                                      ! Month
  SummerDesignDay,                        ! Day Type
  0,                                      ! Daylight Saving Time Indicator
  Wetbulb,                                ! Humidity Indicating Type
  ,                                       ! Humidity Indicating Day Schedule Name
  DefaultMultipliers,                     ! Dry-Bulb Temperature Range Modifier Type
  ,                                       ! Dry-Bulb Temperature Range Modifier Schedule Name
  ASHRAETau,                              ! Solar Model Indicator
  ,                                       ! Beam Solar Day Schedule Name
  ,                                       ! Diffuse Solar Day Schedule Name
  0.484,                                  ! ASHRAE Taub {dimensionless}
  1.959;                                  ! ASHRAE Taud {dimensionless}

OS:ComponentData,
  {9ea1bb5d-12d8-412a-a793-b22605557f1d}, ! Handle
  Component Data 1,                       ! Name
  {69c2854a-22ee-4af8-8760-af3220712130}, ! UUID
  {71a850ee-7a78-4777-98b6-59d0898d31f3}, ! Version UUID
  1366307376,                             ! Creation Timestamp
  1366307376,                             ! Version Timestamp
  {b30d1fd2-38aa-4ef4-9763-7c8d2e217512}; ! Name of Object 1

