
OS:Version,
  {f2cd9cbf-38db-4823-a5fb-d40529ffcde9}, ! Handle
  0.9.3;                                  ! Version Identifier

OS:SizingPeriod:DesignDay,
  {8734478b-a96a-4d9e-b785-2ba7270cf2db}, ! Handle
  SAULT_STE. Ann Hum_n 99% Condns DP=>MCDB, ! Name
  -20.2,                                  ! Maximum Dry-Bulb Temperature {C}
  0,                                      ! Daily Dry-Bulb Temperature Range {deltaC}
  -26.3,                                  ! Humidity Indicating Conditions at Maximum Dry-Bulb {BasedOnField A3}
  98698,                                  ! Barometric Pressure {Pa}
  2.4,                                    ! Wind Speed {m/s}
  90,                                     ! Wind Direction {deg}
  0,                                      ! Sky Clearness
  0,                                      ! Rain Indicator
  0,                                      ! Snow Indicator
  21,                                     ! Day of Month
  1,                                      ! Month
  WinterDesignDay,                        ! Day Type
  0,                                      ! Daylight Saving Time Indicator
  Dewpoint,                               ! Humidity Indicating Type
  ,                                       ! Humidity Indicating Day Schedule Name
  DefaultMultipliers,                     ! Dry-Bulb Temperature Range Modifier Type
  ,                                       ! Dry-Bulb Temperature Range Modifier Schedule Name
  ASHRAEClearSky;                         ! Solar Model Indicator

OS:ComponentData,
  {a422eb12-8164-497a-ac69-ec734dbd3df6}, ! Handle
  Component Data 1,                       ! Name
  {86c4df95-f8e6-4e5b-b4fd-31073fe43a34}, ! UUID
  {3fa8fe9f-34ad-4e86-ac61-4413e3f23c96}, ! Version UUID
  1366308109,                             ! Creation Timestamp
  1366308109,                             ! Version Timestamp
  {8734478b-a96a-4d9e-b785-2ba7270cf2db}; ! Name of Object 1

