
OS:Version,
  {f2eb216e-edb1-4bcc-a7db-fc64ce445dd6}, ! Handle
  0.9.3;                                  ! Version Identifier

OS:SizingPeriod:DesignDay,
  {dcd2c13e-09e5-49ac-b367-bad9c457e339}, ! Handle
  Stuttgart  Awos Ann Clg 2% Condns Enth=>MDB, ! Name
  31.8,                                   ! Maximum Dry-Bulb Temperature {C}
  9.6,                                    ! Daily Dry-Bulb Temperature Range {deltaC}
  79300,                                  ! Humidity Indicating Conditions at Maximum Dry-Bulb {BasedOnField A3}
  100511,                                 ! Barometric Pressure {Pa}
  3.7,                                    ! Wind Speed {m/s}
  220,                                    ! Wind Direction {deg}
  0,                                      ! Sky Clearness
  0,                                      ! Rain Indicator
  0,                                      ! Snow Indicator
  21,                                     ! Day of Month
  7,                                      ! Month
  SummerDesignDay,                        ! Day Type
  0,                                      ! Daylight Saving Time Indicator
  Enthalpy,                               ! Humidity Indicating Type
  ,                                       ! Humidity Indicating Day Schedule Name
  DefaultMultipliers,                     ! Dry-Bulb Temperature Range Modifier Type
  ,                                       ! Dry-Bulb Temperature Range Modifier Schedule Name
  ASHRAETau,                              ! Solar Model Indicator
  ,                                       ! Beam Solar Day Schedule Name
  ,                                       ! Diffuse Solar Day Schedule Name
  0.515,                                  ! ASHRAE Taub {dimensionless}
  1.894;                                  ! ASHRAE Taud {dimensionless}

