
OS:Version,
  {c7a1f19d-470f-4158-821a-e3e1a07f6595}, ! Handle
  0.9.3;                                  ! Version Identifier

OS:SizingPeriod:DesignDay,
  {b2df6f87-7f8e-48ff-84ce-020e3d6ef872}, ! Handle
  Tonopah Ann Htg Wind 99.6% Condns WS=>MCDB, ! Name
  1.9,                                    ! Maximum Dry-Bulb Temperature {C}
  0,                                      ! Daily Dry-Bulb Temperature Range {deltaC}
  1.9,                                    ! Humidity Indicating Conditions at Maximum Dry-Bulb {BasedOnField A3}
  82970,                                  ! Barometric Pressure {Pa}
  12.8,                                   ! Wind Speed {m/s}
  350,                                    ! Wind Direction {deg}
  0,                                      ! Sky Clearness
  0,                                      ! Rain Indicator
  0,                                      ! Snow Indicator
  21,                                     ! Day of Month
  12,                                     ! Month
  WinterDesignDay,                        ! Day Type
  0,                                      ! Daylight Saving Time Indicator
  Wetbulb,                                ! Humidity Indicating Type
  ,                                       ! Humidity Indicating Day Schedule Name
  DefaultMultipliers,                     ! Dry-Bulb Temperature Range Modifier Type
  ,                                       ! Dry-Bulb Temperature Range Modifier Schedule Name
  ASHRAEClearSky;                         ! Solar Model Indicator

OS:ComponentData,
  {70657ed9-8b3e-4ac3-823a-7f857e27c2e7}, ! Handle
  Component Data 1,                       ! Name
  {c02664c8-cf34-4ec1-b605-4db97292b122}, ! UUID
  {100543de-b43b-4444-a135-a05d2e50961a}, ! Version UUID
  1366309549,                             ! Creation Timestamp
  1366309549,                             ! Version Timestamp
  {b2df6f87-7f8e-48ff-84ce-020e3d6ef872}; ! Name of Object 1

