
OS:Version,
  {04003250-e458-4151-b107-4806557c3d6b}, ! Handle
  0.9.3;                                  ! Version Identifier

OS:SizingPeriod:DesignDay,
  {56b8f208-a8dd-45e9-b7c4-8cc820eb5a03}, ! Handle
  Otis Angb Ann Hum_n 99.6% Condns DP=>MCDB, ! Name
  -10.9,                                  ! Maximum Dry-Bulb Temperature {C}
  0,                                      ! Daily Dry-Bulb Temperature Range {deltaC}
  -22.3,                                  ! Humidity Indicating Conditions at Maximum Dry-Bulb {BasedOnField A3}
  100845,                                 ! Barometric Pressure {Pa}
  4.9,                                    ! Wind Speed {m/s}
  300,                                    ! Wind Direction {deg}
  0,                                      ! Sky Clearness
  0,                                      ! Rain Indicator
  0,                                      ! Snow Indicator
  21,                                     ! Day of Month
  1,                                      ! Month
  WinterDesignDay,                        ! Day Type
  0,                                      ! Daylight Saving Time Indicator
  Dewpoint,                               ! Humidity Indicating Type
  ,                                       ! Humidity Indicating Day Schedule Name
  DefaultMultipliers,                     ! Dry-Bulb Temperature Range Modifier Type
  ,                                       ! Dry-Bulb Temperature Range Modifier Schedule Name
  ASHRAEClearSky;                         ! Solar Model Indicator

OS:ComponentData,
  {f72bcb0a-056b-436c-a7d0-2660dc439f9c}, ! Handle
  Component Data 1,                       ! Name
  {70bb4024-7ddd-4951-a662-bb5bf7c72251}, ! UUID
  {d019e040-aae3-44a8-b0a1-950b233723eb}, ! Version UUID
  1366307814,                             ! Creation Timestamp
  1366307814,                             ! Version Timestamp
  {56b8f208-a8dd-45e9-b7c4-8cc820eb5a03}; ! Name of Object 1

