
OS:Version,
  {b348e308-8000-4a52-9848-894e481e3d89}, ! Handle
  0.9.3;                                  ! Version Identifier

OS:SizingPeriod:DesignDay,
  {47c45202-b594-47c3-bb50-2ca841ed1002}, ! Handle
  San Antonio/Randolph A Ann Clg 1% Condns WB=>MDB, ! Name
  30.6,                                   ! Maximum Dry-Bulb Temperature {C}
  11.2,                                   ! Daily Dry-Bulb Temperature Range {deltaC}
  25.2,                                   ! Humidity Indicating Conditions at Maximum Dry-Bulb {BasedOnField A3}
  98569,                                  ! Barometric Pressure {Pa}
  4.3,                                    ! Wind Speed {m/s}
  160,                                    ! Wind Direction {deg}
  0,                                      ! Sky Clearness
  0,                                      ! Rain Indicator
  0,                                      ! Snow Indicator
  21,                                     ! Day of Month
  8,                                      ! Month
  SummerDesignDay,                        ! Day Type
  0,                                      ! Daylight Saving Time Indicator
  Wetbulb,                                ! Humidity Indicating Type
  ,                                       ! Humidity Indicating Day Schedule Name
  DefaultMultipliers,                     ! Dry-Bulb Temperature Range Modifier Type
  ,                                       ! Dry-Bulb Temperature Range Modifier Schedule Name
  ASHRAETau,                              ! Solar Model Indicator
  ,                                       ! Beam Solar Day Schedule Name
  ,                                       ! Diffuse Solar Day Schedule Name
  0.449,                                  ! ASHRAE Taub {dimensionless}
  2.144;                                  ! ASHRAE Taud {dimensionless}

OS:ComponentData,
  {ec6e07ee-a81a-4ed9-b3a4-c97ffc7d0afd}, ! Handle
  Component Data 1,                       ! Name
  {eb9e3412-80cd-483d-903b-5598866c9839}, ! UUID
  {4d1975c0-b493-4e64-bf60-f51aeb888839}, ! Version UUID
  1366310894,                             ! Creation Timestamp
  1366310894,                             ! Version Timestamp
  {47c45202-b594-47c3-bb50-2ca841ed1002}; ! Name of Object 1

