
OS:Version,
  {96fc5f8f-beaf-4eb6-958a-36455aac1f87}, ! Handle
  0.9.3;                                  ! Version Identifier

OS:SizingPeriod:DesignDay,
  {6bb8a905-c823-404a-b725-aff95ce26a42}, ! Handle
  Mercury Desert Rock Ap  Surfr Ann Htg 99.6% Condns DB, ! Name
  -3.5,                                   ! Maximum Dry-Bulb Temperature {C}
  0,                                      ! Daily Dry-Bulb Temperature Range {deltaC}
  -3.5,                                   ! Humidity Indicating Conditions at Maximum Dry-Bulb {BasedOnField A3}
  90585,                                  ! Barometric Pressure {Pa}
  3,                                      ! Wind Speed {m/s}
  30,                                     ! Wind Direction {deg}
  0,                                      ! Sky Clearness
  0,                                      ! Rain Indicator
  0,                                      ! Snow Indicator
  21,                                     ! Day of Month
  12,                                     ! Month
  WinterDesignDay,                        ! Day Type
  0,                                      ! Daylight Saving Time Indicator
  Wetbulb,                                ! Humidity Indicating Type
  ,                                       ! Humidity Indicating Day Schedule Name
  DefaultMultipliers,                     ! Dry-Bulb Temperature Range Modifier Type
  ,                                       ! Dry-Bulb Temperature Range Modifier Schedule Name
  ASHRAEClearSky;                         ! Solar Model Indicator

OS:ComponentData,
  {12286ce3-9c93-4079-9549-9f9ffcc54247}, ! Handle
  Component Data 1,                       ! Name
  {0e56d4bc-adb2-4823-9f09-7d68c1fd0725}, ! UUID
  {fb23a0b8-9a92-47ac-a5b6-bdcb994b2b9a}, ! Version UUID
  1366309520,                             ! Creation Timestamp
  1366309520,                             ! Version Timestamp
  {6bb8a905-c823-404a-b725-aff95ce26a42}; ! Name of Object 1

