
OS:Version,
  {35d074b1-9ec0-4871-b95e-3a7e94f17e9b}, ! Handle
  0.9.3;                                  ! Version Identifier

OS:SizingPeriod:DesignDay,
  {0821b8c5-2923-4c8b-bf9d-acfac4eed0a3}, ! Handle
  PENDLETON Ann Hum_n 99% Condns DP=>MCDB, ! Name
  -8.8,                                   ! Maximum Dry-Bulb Temperature {C}
  0,                                      ! Daily Dry-Bulb Temperature Range {deltaC}
  -12.3,                                  ! Humidity Indicating Conditions at Maximum Dry-Bulb {BasedOnField A3}
  95966,                                  ! Barometric Pressure {Pa}
  2,                                      ! Wind Speed {m/s}
  140,                                    ! Wind Direction {deg}
  0,                                      ! Sky Clearness
  0,                                      ! Rain Indicator
  0,                                      ! Snow Indicator
  21,                                     ! Day of Month
  12,                                     ! Month
  WinterDesignDay,                        ! Day Type
  0,                                      ! Daylight Saving Time Indicator
  Dewpoint,                               ! Humidity Indicating Type
  ,                                       ! Humidity Indicating Day Schedule Name
  DefaultMultipliers,                     ! Dry-Bulb Temperature Range Modifier Type
  ,                                       ! Dry-Bulb Temperature Range Modifier Schedule Name
  ASHRAEClearSky;                         ! Solar Model Indicator

OS:ComponentData,
  {d87e6c6f-dcf7-4db1-9f54-7b40eb3f1e97}, ! Handle
  Component Data 1,                       ! Name
  {dfedaa62-0a1d-461a-a740-3d5ac578c51f}, ! UUID
  {a2bc2e0e-80b6-4faa-8b78-1e9f8c8351dd}, ! Version UUID
  1366310062,                             ! Creation Timestamp
  1366310063,                             ! Version Timestamp
  {0821b8c5-2923-4c8b-bf9d-acfac4eed0a3}; ! Name of Object 1

