
OS:Version,
  {dd9a5d25-d6f7-4240-9b24-e27461a244b1}, ! Handle
  0.9.3;                                  ! Version Identifier

OS:SizingPeriod:DesignDay,
  {2096c0f4-abc7-4055-be90-75ad1fe13af3}, ! Handle
  MILWAUKEE Ann Clg .4% Condns WB=>MDB,   ! Name
  30.5,                                   ! Maximum Dry-Bulb Temperature {C}
  8.7,                                    ! Daily Dry-Bulb Temperature Range {deltaC}
  25,                                     ! Humidity Indicating Conditions at Maximum Dry-Bulb {BasedOnField A3}
  98816,                                  ! Barometric Pressure {Pa}
  6.4,                                    ! Wind Speed {m/s}
  240,                                    ! Wind Direction {deg}
  0,                                      ! Sky Clearness
  0,                                      ! Rain Indicator
  0,                                      ! Snow Indicator
  21,                                     ! Day of Month
  7,                                      ! Month
  SummerDesignDay,                        ! Day Type
  0,                                      ! Daylight Saving Time Indicator
  Wetbulb,                                ! Humidity Indicating Type
  ,                                       ! Humidity Indicating Day Schedule Name
  DefaultMultipliers,                     ! Dry-Bulb Temperature Range Modifier Type
  ,                                       ! Dry-Bulb Temperature Range Modifier Schedule Name
  ASHRAETau,                              ! Solar Model Indicator
  ,                                       ! Beam Solar Day Schedule Name
  ,                                       ! Diffuse Solar Day Schedule Name
  0.452,                                  ! ASHRAE Taub {dimensionless}
  2.061;                                  ! ASHRAE Taud {dimensionless}

OS:ComponentData,
  {97fab41c-1004-4708-9300-1d97e6fcf704}, ! Handle
  Component Data 1,                       ! Name
  {d629c7c3-c3aa-4608-a985-eb60d72753ad}, ! UUID
  {0cf02aef-8b05-41ac-b981-fbcdca029e7f}, ! Version UUID
  1366311563,                             ! Creation Timestamp
  1366311563,                             ! Version Timestamp
  {2096c0f4-abc7-4055-be90-75ad1fe13af3}; ! Name of Object 1

