
OS:Version,
  {90749b69-3cf2-4ae2-8e24-8fd4bed3737c}, ! Handle
  0.9.3;                                  ! Version Identifier

OS:SizingPeriod:DesignDay,
  {8ffefa36-1f31-4ec5-b93e-c31b4032f706}, ! Handle
  Mountain View Moffett Fld Nas Ann Htg Wind 99.6% Condns WS=>MCDB, ! Name
  12,                                     ! Maximum Dry-Bulb Temperature {C}
  0,                                      ! Daily Dry-Bulb Temperature Range {deltaC}
  12,                                     ! Humidity Indicating Conditions at Maximum Dry-Bulb {BasedOnField A3}
  101181,                                 ! Barometric Pressure {Pa}
  10.4,                                   ! Wind Speed {m/s}
  270,                                    ! Wind Direction {deg}
  0,                                      ! Sky Clearness
  0,                                      ! Rain Indicator
  0,                                      ! Snow Indicator
  21,                                     ! Day of Month
  12,                                     ! Month
  WinterDesignDay,                        ! Day Type
  0,                                      ! Daylight Saving Time Indicator
  Wetbulb,                                ! Humidity Indicating Type
  ,                                       ! Humidity Indicating Day Schedule Name
  DefaultMultipliers,                     ! Dry-Bulb Temperature Range Modifier Type
  ,                                       ! Dry-Bulb Temperature Range Modifier Schedule Name
  ASHRAEClearSky;                         ! Solar Model Indicator

OS:ComponentData,
  {16d65cc7-fd79-4785-9b3d-ba7dcdfe06cd}, ! Handle
  Component Data 1,                       ! Name
  {81ad4714-ef8e-431c-83af-74a47b17a26c}, ! UUID
  {f317566c-7aa9-4aa0-884c-e2232e872b47}, ! Version UUID
  1366306512,                             ! Creation Timestamp
  1366306512,                             ! Version Timestamp
  {8ffefa36-1f31-4ec5-b93e-c31b4032f706}; ! Name of Object 1

