
OS:Version,
  {ce545b36-5f93-4a4f-8a2e-47c06688f8d4}, ! Handle
  0.9.3;                                  ! Version Identifier

OS:SizingPeriod:DesignDay,
  {99254a3d-e51b-411b-a911-a1694d2ae8fe}, ! Handle
  Montague Siskiyou County Ap Ann Clg 2% Condns WB=>MDB, ! Name
  30.3,                                   ! Maximum Dry-Bulb Temperature {C}
  19.4,                                   ! Daily Dry-Bulb Temperature Range {deltaC}
  17.1,                                   ! Humidity Indicating Conditions at Maximum Dry-Bulb {BasedOnField A3}
  92043,                                  ! Barometric Pressure {Pa}
  3.2,                                    ! Wind Speed {m/s}
  190,                                    ! Wind Direction {deg}
  0,                                      ! Sky Clearness
  0,                                      ! Rain Indicator
  0,                                      ! Snow Indicator
  21,                                     ! Day of Month
  7,                                      ! Month
  SummerDesignDay,                        ! Day Type
  0,                                      ! Daylight Saving Time Indicator
  Wetbulb,                                ! Humidity Indicating Type
  ,                                       ! Humidity Indicating Day Schedule Name
  DefaultMultipliers,                     ! Dry-Bulb Temperature Range Modifier Type
  ,                                       ! Dry-Bulb Temperature Range Modifier Schedule Name
  ASHRAETau,                              ! Solar Model Indicator
  ,                                       ! Beam Solar Day Schedule Name
  ,                                       ! Diffuse Solar Day Schedule Name
  0.349,                                  ! ASHRAE Taub {dimensionless}
  2.55;                                   ! ASHRAE Taud {dimensionless}

OS:ComponentData,
  {cd5a89d1-f78c-4cd7-beec-f2a7bf4e0ff4}, ! Handle
  Component Data 1,                       ! Name
  {a5924879-4141-4763-b3d4-69d842a36b64}, ! UUID
  {3710644e-daf4-47f0-9de2-f7866cc2f89e}, ! Version UUID
  1366306496,                             ! Creation Timestamp
  1366306496,                             ! Version Timestamp
  {99254a3d-e51b-411b-a911-a1694d2ae8fe}; ! Name of Object 1

