
OS:Version,
  {84c102f4-5a2d-421d-9557-bb859aa257fe}, ! Handle
  0.9.3;                                  ! Version Identifier

OS:SizingPeriod:DesignDay,
  {71104d6b-1ffb-468f-8994-380ccf37c4ed}, ! Handle
  Valentine Miller Field Ann Clg 2% Condns WB=>MDB, ! Name
  29.8,                                   ! Maximum Dry-Bulb Temperature {C}
  14.7,                                   ! Daily Dry-Bulb Temperature Range {deltaC}
  21.2,                                   ! Humidity Indicating Conditions at Maximum Dry-Bulb {BasedOnField A3}
  92199,                                  ! Barometric Pressure {Pa}
  6.5,                                    ! Wind Speed {m/s}
  170,                                    ! Wind Direction {deg}
  0,                                      ! Sky Clearness
  0,                                      ! Rain Indicator
  0,                                      ! Snow Indicator
  21,                                     ! Day of Month
  7,                                      ! Month
  SummerDesignDay,                        ! Day Type
  0,                                      ! Daylight Saving Time Indicator
  Wetbulb,                                ! Humidity Indicating Type
  ,                                       ! Humidity Indicating Day Schedule Name
  DefaultMultipliers,                     ! Dry-Bulb Temperature Range Modifier Type
  ,                                       ! Dry-Bulb Temperature Range Modifier Schedule Name
  ASHRAETau,                              ! Solar Model Indicator
  ,                                       ! Beam Solar Day Schedule Name
  ,                                       ! Diffuse Solar Day Schedule Name
  0.416,                                  ! ASHRAE Taub {dimensionless}
  2.126;                                  ! ASHRAE Taud {dimensionless}

OS:ComponentData,
  {362e4e6e-41bf-4855-986c-87d4cff93247}, ! Handle
  Component Data 1,                       ! Name
  {d54f3250-48e0-45a9-97aa-ad42daf6a27e}, ! UUID
  {a3b200c1-667e-4858-bce6-d5943ba682e0}, ! Version UUID
  1366309211,                             ! Creation Timestamp
  1366309211,                             ! Version Timestamp
  {71104d6b-1ffb-468f-8994-380ccf37c4ed}; ! Name of Object 1

