
OS:Version,
  {4d129017-1311-43cd-9df5-f24c31e385a6}, ! Handle
  0.9.3;                                  ! Version Identifier

OS:SizingPeriod:DesignDay,
  {342125e5-8ec4-4ae6-bcf8-f4d2cad59fc8}, ! Handle
  ROCKFORD Ann Clg .4% Condns Enth=>MDB,  ! Name
  31.2,                                   ! Maximum Dry-Bulb Temperature {C}
  11,                                     ! Daily Dry-Bulb Temperature Range {deltaC}
  80300,                                  ! Humidity Indicating Conditions at Maximum Dry-Bulb {BasedOnField A3}
  98698,                                  ! Barometric Pressure {Pa}
  5.3,                                    ! Wind Speed {m/s}
  210,                                    ! Wind Direction {deg}
  0,                                      ! Sky Clearness
  0,                                      ! Rain Indicator
  0,                                      ! Snow Indicator
  21,                                     ! Day of Month
  7,                                      ! Month
  SummerDesignDay,                        ! Day Type
  0,                                      ! Daylight Saving Time Indicator
  Enthalpy,                               ! Humidity Indicating Type
  ,                                       ! Humidity Indicating Day Schedule Name
  DefaultMultipliers,                     ! Dry-Bulb Temperature Range Modifier Type
  ,                                       ! Dry-Bulb Temperature Range Modifier Schedule Name
  ASHRAETau,                              ! Solar Model Indicator
  ,                                       ! Beam Solar Day Schedule Name
  ,                                       ! Diffuse Solar Day Schedule Name
  0.445,                                  ! ASHRAE Taub {dimensionless}
  2.082;                                  ! ASHRAE Taud {dimensionless}

OS:ComponentData,
  {2264eae4-7abf-4440-8efc-4bd0d2628c95}, ! Handle
  Component Data 1,                       ! Name
  {6e0188d3-2e39-4ed3-857d-50c77db1eb94}, ! UUID
  {1ae2b547-b324-4792-86b3-3037ddc573f0}, ! Version UUID
  1366307398,                             ! Creation Timestamp
  1366307398,                             ! Version Timestamp
  {342125e5-8ec4-4ae6-bcf8-f4d2cad59fc8}; ! Name of Object 1

