
OS:Version,
  {20b24e97-7986-4543-a0c2-b2e782efef78}, ! Handle
  0.9.3;                                  ! Version Identifier

OS:SizingPeriod:DesignDay,
  {30553e73-291d-41c6-9395-3b43f75a1df2}, ! Handle
  Willmar Ann Clg .4% Condns DP=>MDB,     ! Name
  27.9,                                   ! Maximum Dry-Bulb Temperature {C}
  10.5,                                   ! Daily Dry-Bulb Temperature Range {deltaC}
  22.8,                                   ! Humidity Indicating Conditions at Maximum Dry-Bulb {BasedOnField A3}
  97249,                                  ! Barometric Pressure {Pa}
  5,                                      ! Wind Speed {m/s}
  160,                                    ! Wind Direction {deg}
  0,                                      ! Sky Clearness
  0,                                      ! Rain Indicator
  0,                                      ! Snow Indicator
  21,                                     ! Day of Month
  7,                                      ! Month
  SummerDesignDay,                        ! Day Type
  0,                                      ! Daylight Saving Time Indicator
  Dewpoint,                               ! Humidity Indicating Type
  ,                                       ! Humidity Indicating Day Schedule Name
  DefaultMultipliers,                     ! Dry-Bulb Temperature Range Modifier Type
  ,                                       ! Dry-Bulb Temperature Range Modifier Schedule Name
  ASHRAETau,                              ! Solar Model Indicator
  ,                                       ! Beam Solar Day Schedule Name
  ,                                       ! Diffuse Solar Day Schedule Name
  0.398,                                  ! ASHRAE Taub {dimensionless}
  2.251;                                  ! ASHRAE Taud {dimensionless}

OS:ComponentData,
  {2ce85726-d63b-49fa-8a6f-b73ec1d09c85}, ! Handle
  Component Data 1,                       ! Name
  {97d8756c-9fe9-47d8-87c7-bc4694c0f7a5}, ! UUID
  {0a134f67-7057-4d1e-9e15-f14b698e722f}, ! Version UUID
  1366308458,                             ! Creation Timestamp
  1366308458,                             ! Version Timestamp
  {30553e73-291d-41c6-9395-3b43f75a1df2}; ! Name of Object 1

