
OS:Version,
  {4236d2d6-f72d-4ee3-8e39-6a3987e8732b}, ! Handle
  0.9.3;                                  ! Version Identifier

OS:SizingPeriod:DesignDay,
  {f61dc9e2-be80-455e-88f0-bf5c5bf06bc8}, ! Handle
  Tonopah Airport Ann Clg .4% Condns DP=>MDB, ! Name
  20.3,                                   ! Maximum Dry-Bulb Temperature {C}
  18.2,                                   ! Daily Dry-Bulb Temperature Range {deltaC}
  13.8,                                   ! Humidity Indicating Conditions at Maximum Dry-Bulb {BasedOnField A3}
  82960,                                  ! Barometric Pressure {Pa}
  5.1,                                    ! Wind Speed {m/s}
  180,                                    ! Wind Direction {deg}
  0,                                      ! Sky Clearness
  0,                                      ! Rain Indicator
  0,                                      ! Snow Indicator
  21,                                     ! Day of Month
  7,                                      ! Month
  SummerDesignDay,                        ! Day Type
  0,                                      ! Daylight Saving Time Indicator
  Dewpoint,                               ! Humidity Indicating Type
  ,                                       ! Humidity Indicating Day Schedule Name
  DefaultMultipliers,                     ! Dry-Bulb Temperature Range Modifier Type
  ,                                       ! Dry-Bulb Temperature Range Modifier Schedule Name
  ASHRAETau,                              ! Solar Model Indicator
  ,                                       ! Beam Solar Day Schedule Name
  ,                                       ! Diffuse Solar Day Schedule Name
  0.483,                                  ! ASHRAE Taub {dimensionless}
  1.772;                                  ! ASHRAE Taud {dimensionless}

OS:ComponentData,
  {2e232d70-ec12-42bc-91b0-e5072c43c567}, ! Handle
  Component Data 1,                       ! Name
  {d5d9291a-4413-4dd8-9eee-ff75aae48d35}, ! UUID
  {997587d9-198f-4179-8851-22f6311fda0e}, ! Version UUID
  1366309555,                             ! Creation Timestamp
  1366309555,                             ! Version Timestamp
  {f61dc9e2-be80-455e-88f0-bf5c5bf06bc8}; ! Name of Object 1

