
OS:Version,
  {3d574435-19a2-43a9-9aa2-4e1d6bbf825c}, ! Handle
  0.9.3;                                  ! Version Identifier

OS:SizingPeriod:DesignDay,
  {3619f1f2-35d0-42e4-95f0-7b7ffa61406d}, ! Handle
  Robert Gray Aaf Ann Clg 1% Condns DB=>MWB, ! Name
  36.7,                                   ! Maximum Dry-Bulb Temperature {C}
  12,                                     ! Daily Dry-Bulb Temperature Range {deltaC}
  23,                                     ! Humidity Indicating Conditions at Maximum Dry-Bulb {BasedOnField A3}
  97633,                                  ! Barometric Pressure {Pa}
  4.2,                                    ! Wind Speed {m/s}
  160,                                    ! Wind Direction {deg}
  0,                                      ! Sky Clearness
  0,                                      ! Rain Indicator
  0,                                      ! Snow Indicator
  21,                                     ! Day of Month
  8,                                      ! Month
  SummerDesignDay,                        ! Day Type
  0,                                      ! Daylight Saving Time Indicator
  Wetbulb,                                ! Humidity Indicating Type
  ,                                       ! Humidity Indicating Day Schedule Name
  DefaultMultipliers,                     ! Dry-Bulb Temperature Range Modifier Type
  ,                                       ! Dry-Bulb Temperature Range Modifier Schedule Name
  ASHRAETau,                              ! Solar Model Indicator
  ,                                       ! Beam Solar Day Schedule Name
  ,                                       ! Diffuse Solar Day Schedule Name
  0.443,                                  ! ASHRAE Taub {dimensionless}
  2.148;                                  ! ASHRAE Taud {dimensionless}

OS:ComponentData,
  {fd1aa84a-c89b-4446-9187-1887aa0d48bb}, ! Handle
  Component Data 1,                       ! Name
  {2315938a-ae08-44d4-b22d-abfc26f573cc}, ! UUID
  {45239ee5-49d9-44cd-83b2-32d1bc65f264}, ! Version UUID
  1366310763,                             ! Creation Timestamp
  1366310763,                             ! Version Timestamp
  {3619f1f2-35d0-42e4-95f0-7b7ffa61406d}; ! Name of Object 1

