
OS:Version,
  {6fae3883-09ca-4d45-92c5-22602958aa11}, ! Handle
  0.9.3;                                  ! Version Identifier

OS:SizingPeriod:DesignDay,
  {0d9cb34a-66aa-471e-9984-006173f95b1d}, ! Handle
  Salmon Lemhi  Awos Ann Clg 1% Condns Enth=>MDB, ! Name
  28,                                     ! Maximum Dry-Bulb Temperature {C}
  18.2,                                   ! Daily Dry-Bulb Temperature Range {deltaC}
  51300,                                  ! Humidity Indicating Conditions at Maximum Dry-Bulb {BasedOnField A3}
  87363,                                  ! Barometric Pressure {Pa}
  3.7,                                    ! Wind Speed {m/s}
  330,                                    ! Wind Direction {deg}
  0,                                      ! Sky Clearness
  0,                                      ! Rain Indicator
  0,                                      ! Snow Indicator
  21,                                     ! Day of Month
  7,                                      ! Month
  SummerDesignDay,                        ! Day Type
  0,                                      ! Daylight Saving Time Indicator
  Enthalpy,                               ! Humidity Indicating Type
  ,                                       ! Humidity Indicating Day Schedule Name
  DefaultMultipliers,                     ! Dry-Bulb Temperature Range Modifier Type
  ,                                       ! Dry-Bulb Temperature Range Modifier Schedule Name
  ASHRAETau,                              ! Solar Model Indicator
  ,                                       ! Beam Solar Day Schedule Name
  ,                                       ! Diffuse Solar Day Schedule Name
  0.376,                                  ! ASHRAE Taub {dimensionless}
  2.269;                                  ! ASHRAE Taud {dimensionless}

OS:ComponentData,
  {cedccb8f-af42-464e-a88d-4139f9aae120}, ! Handle
  Component Data 1,                       ! Name
  {016416cb-a8f5-405c-8974-d8a98b52b3bd}, ! UUID
  {58a636e2-4451-44c7-9d32-9fbec9974e1c}, ! Version UUID
  1366307312,                             ! Creation Timestamp
  1366307312,                             ! Version Timestamp
  {0d9cb34a-66aa-471e-9984-006173f95b1d}; ! Name of Object 1

