
OS:Version,
  {91b2f055-499f-448a-a362-25e9965acf20}, ! Handle
  0.9.3;                                  ! Version Identifier

OS:SizingPeriod:DesignDay,
  {dda6b0fc-3edd-42e9-a033-0b83c6292e77}, ! Handle
  Marshall Ryan Awos Ann Clg 2% Condns DB=>MWB, ! Name
  28.8,                                   ! Maximum Dry-Bulb Temperature {C}
  10.2,                                   ! Daily Dry-Bulb Temperature Range {deltaC}
  20.9,                                   ! Humidity Indicating Conditions at Maximum Dry-Bulb {BasedOnField A3}
  97086,                                  ! Barometric Pressure {Pa}
  7.2,                                    ! Wind Speed {m/s}
  200,                                    ! Wind Direction {deg}
  0,                                      ! Sky Clearness
  0,                                      ! Rain Indicator
  0,                                      ! Snow Indicator
  21,                                     ! Day of Month
  7,                                      ! Month
  SummerDesignDay,                        ! Day Type
  0,                                      ! Daylight Saving Time Indicator
  Wetbulb,                                ! Humidity Indicating Type
  ,                                       ! Humidity Indicating Day Schedule Name
  DefaultMultipliers,                     ! Dry-Bulb Temperature Range Modifier Type
  ,                                       ! Dry-Bulb Temperature Range Modifier Schedule Name
  ASHRAETau,                              ! Solar Model Indicator
  ,                                       ! Beam Solar Day Schedule Name
  ,                                       ! Diffuse Solar Day Schedule Name
  0.398,                                  ! ASHRAE Taub {dimensionless}
  2.26;                                   ! ASHRAE Taud {dimensionless}

OS:ComponentData,
  {1315e3b6-95ec-41a5-af2b-6e69c567efa2}, ! Handle
  Component Data 1,                       ! Name
  {b7fe887c-4c3f-4db5-93b6-2657e74210b9}, ! UUID
  {028f46f4-8577-49ff-87ef-b2007635466b}, ! Version UUID
  1366308300,                             ! Creation Timestamp
  1366308300,                             ! Version Timestamp
  {dda6b0fc-3edd-42e9-a033-0b83c6292e77}; ! Name of Object 1

