
OS:Version,
  {0ca14bc2-7b18-4a23-b190-d80438925869}, ! Handle
  0.9.3;                                  ! Version Identifier

OS:SizingPeriod:DesignDay,
  {3255b2bb-014e-4a49-a105-2a3a9cb42d09}, ! Handle
  Orlando Ann Clg 2% Condns WB=>MDB,      ! Name
  29.8,                                   ! Maximum Dry-Bulb Temperature {C}
  8.8,                                    ! Daily Dry-Bulb Temperature Range {deltaC}
  25.7,                                   ! Humidity Indicating Conditions at Maximum Dry-Bulb {BasedOnField A3}
  100941,                                 ! Barometric Pressure {Pa}
  3.7,                                    ! Wind Speed {m/s}
  270,                                    ! Wind Direction {deg}
  0,                                      ! Sky Clearness
  0,                                      ! Rain Indicator
  0,                                      ! Snow Indicator
  21,                                     ! Day of Month
  7,                                      ! Month
  SummerDesignDay,                        ! Day Type
  0,                                      ! Daylight Saving Time Indicator
  Wetbulb,                                ! Humidity Indicating Type
  ,                                       ! Humidity Indicating Day Schedule Name
  DefaultMultipliers,                     ! Dry-Bulb Temperature Range Modifier Type
  ,                                       ! Dry-Bulb Temperature Range Modifier Schedule Name
  ASHRAETau,                              ! Solar Model Indicator
  ,                                       ! Beam Solar Day Schedule Name
  ,                                       ! Diffuse Solar Day Schedule Name
  0.516,                                  ! ASHRAE Taub {dimensionless}
  1.924;                                  ! ASHRAE Taud {dimensionless}

OS:ComponentData,
  {05ee18ce-9feb-4376-82b4-c3d079adecad}, ! Handle
  Component Data 1,                       ! Name
  {d83343d9-ae20-4e2d-9c1a-32bd44799945}, ! UUID
  {4b92223e-bf3a-4a75-b7b3-a91e72455275}, ! Version UUID
  1366306889,                             ! Creation Timestamp
  1366306889,                             ! Version Timestamp
  {3255b2bb-014e-4a49-a105-2a3a9cb42d09}; ! Name of Object 1

