
OS:Version,
  {d39886f7-ba01-4c21-ae34-982da42db1d2}, ! Handle
  0.9.3;                                  ! Version Identifier

OS:SizingPeriod:DesignDay,
  {f7250b6b-bf21-4c88-bc2b-4798dfdff900}, ! Handle
  St Paul Island Arpt Ann Clg 1% Condns WB=>MDB, ! Name
  11.3,                                   ! Maximum Dry-Bulb Temperature {C}
  3.1,                                    ! Daily Dry-Bulb Temperature Range {deltaC}
  10.7,                                   ! Humidity Indicating Conditions at Maximum Dry-Bulb {BasedOnField A3}
  101241,                                 ! Barometric Pressure {Pa}
  6,                                      ! Wind Speed {m/s}
  350,                                    ! Wind Direction {deg}
  0,                                      ! Sky Clearness
  0,                                      ! Rain Indicator
  0,                                      ! Snow Indicator
  21,                                     ! Day of Month
  8,                                      ! Month
  SummerDesignDay,                        ! Day Type
  0,                                      ! Daylight Saving Time Indicator
  Wetbulb,                                ! Humidity Indicating Type
  ,                                       ! Humidity Indicating Day Schedule Name
  DefaultMultipliers,                     ! Dry-Bulb Temperature Range Modifier Type
  ,                                       ! Dry-Bulb Temperature Range Modifier Schedule Name
  ASHRAETau,                              ! Solar Model Indicator
  ,                                       ! Beam Solar Day Schedule Name
  ,                                       ! Diffuse Solar Day Schedule Name
  0.39,                                   ! ASHRAE Taub {dimensionless}
  2.227;                                  ! ASHRAE Taud {dimensionless}

OS:ComponentData,
  {31c2d7b5-464d-4033-a8e3-51c38c5abddf}, ! Handle
  Component Data 1,                       ! Name
  {1a907ac1-f3ec-43cc-95cf-e9253317f8e8}, ! UUID
  {0bf3fc42-c6f1-4a1a-81f8-50278fe6be9a}, ! Version UUID
  1366305577,                             ! Creation Timestamp
  1366305577,                             ! Version Timestamp
  {f7250b6b-bf21-4c88-bc2b-4798dfdff900}; ! Name of Object 1

