
OS:Version,
  {d9e03a85-95a9-40bf-8572-4caa76eeb9d9}, ! Handle
  0.9.3;                                  ! Version Identifier

OS:SizingPeriod:DesignDay,
  {0accf944-6e97-40ea-8b7f-28842e260128}, ! Handle
  Scottsbluff W B Heilig Field Ann Clg 2% Condns Enth=>MDB, ! Name
  28.7,                                   ! Maximum Dry-Bulb Temperature {C}
  16.6,                                   ! Daily Dry-Bulb Temperature Range {deltaC}
  60000,                                  ! Humidity Indicating Conditions at Maximum Dry-Bulb {BasedOnField A3}
  87694,                                  ! Barometric Pressure {Pa}
  4.7,                                    ! Wind Speed {m/s}
  300,                                    ! Wind Direction {deg}
  0,                                      ! Sky Clearness
  0,                                      ! Rain Indicator
  0,                                      ! Snow Indicator
  21,                                     ! Day of Month
  7,                                      ! Month
  SummerDesignDay,                        ! Day Type
  0,                                      ! Daylight Saving Time Indicator
  Enthalpy,                               ! Humidity Indicating Type
  ,                                       ! Humidity Indicating Day Schedule Name
  DefaultMultipliers,                     ! Dry-Bulb Temperature Range Modifier Type
  ,                                       ! Dry-Bulb Temperature Range Modifier Schedule Name
  ASHRAETau,                              ! Solar Model Indicator
  ,                                       ! Beam Solar Day Schedule Name
  ,                                       ! Diffuse Solar Day Schedule Name
  0.434,                                  ! ASHRAE Taub {dimensionless}
  1.982;                                  ! ASHRAE Taud {dimensionless}

OS:ComponentData,
  {37fa5772-6990-4e08-9e85-059864b00b08}, ! Handle
  Component Data 1,                       ! Name
  {ace3c7ce-f09e-450c-a2e1-33c254df9427}, ! UUID
  {5426a97d-72c6-41c4-8a86-7f2e9d984342}, ! Version UUID
  1366309196,                             ! Creation Timestamp
  1366309196,                             ! Version Timestamp
  {0accf944-6e97-40ea-8b7f-28842e260128}; ! Name of Object 1

