
OS:Version,
  {75e96ef7-6096-4696-a205-503f00b8bec9}, ! Handle
  0.9.3;                                  ! Version Identifier

OS:SizingPeriod:DesignDay,
  {2309160c-03af-4907-9f14-15a72114077c}, ! Handle
  Whiting Field Naas Ann Clg .4% Condns WB=>MDB, ! Name
  32.1,                                   ! Maximum Dry-Bulb Temperature {C}
  10,                                     ! Daily Dry-Bulb Temperature Range {deltaC}
  27.1,                                   ! Humidity Indicating Conditions at Maximum Dry-Bulb {BasedOnField A3}
  100678,                                 ! Barometric Pressure {Pa}
  2.7,                                    ! Wind Speed {m/s}
  330,                                    ! Wind Direction {deg}
  0,                                      ! Sky Clearness
  0,                                      ! Rain Indicator
  0,                                      ! Snow Indicator
  21,                                     ! Day of Month
  7,                                      ! Month
  SummerDesignDay,                        ! Day Type
  0,                                      ! Daylight Saving Time Indicator
  Wetbulb,                                ! Humidity Indicating Type
  ,                                       ! Humidity Indicating Day Schedule Name
  DefaultMultipliers,                     ! Dry-Bulb Temperature Range Modifier Type
  ,                                       ! Dry-Bulb Temperature Range Modifier Schedule Name
  ASHRAETau,                              ! Solar Model Indicator
  ,                                       ! Beam Solar Day Schedule Name
  ,                                       ! Diffuse Solar Day Schedule Name
  0.535,                                  ! ASHRAE Taub {dimensionless}
  1.87;                                   ! ASHRAE Taud {dimensionless}

OS:ComponentData,
  {edc64ac1-e43f-473f-b777-5cdbc1117d3f}, ! Handle
  Component Data 1,                       ! Name
  {606e69f2-c696-4bce-aed3-6fc6bb112c03}, ! UUID
  {9324f27d-9e45-49a0-b7b7-a0711c4282de}, ! Version UUID
  1366306958,                             ! Creation Timestamp
  1366306958,                             ! Version Timestamp
  {2309160c-03af-4907-9f14-15a72114077c}; ! Name of Object 1

