
OS:Version,
  {3bb101bc-b1b1-42dc-b81c-f2034445c9d1}, ! Handle
  0.9.3;                                  ! Version Identifier

OS:SizingPeriod:DesignDay,
  {69cd6cd7-32f2-47ed-8ac8-e2be5ad68ca7}, ! Handle
  Somerset Awos Ann Clg .4% Condns Enth=>MDB, ! Name
  33.2,                                   ! Maximum Dry-Bulb Temperature {C}
  11.7,                                   ! Daily Dry-Bulb Temperature Range {deltaC}
  79900,                                  ! Humidity Indicating Conditions at Maximum Dry-Bulb {BasedOnField A3}
  97971,                                  ! Barometric Pressure {Pa}
  2.3,                                    ! Wind Speed {m/s}
  250,                                    ! Wind Direction {deg}
  0,                                      ! Sky Clearness
  0,                                      ! Rain Indicator
  0,                                      ! Snow Indicator
  21,                                     ! Day of Month
  7,                                      ! Month
  SummerDesignDay,                        ! Day Type
  0,                                      ! Daylight Saving Time Indicator
  Enthalpy,                               ! Humidity Indicating Type
  ,                                       ! Humidity Indicating Day Schedule Name
  DefaultMultipliers,                     ! Dry-Bulb Temperature Range Modifier Type
  ,                                       ! Dry-Bulb Temperature Range Modifier Schedule Name
  ASHRAETau,                              ! Solar Model Indicator
  ,                                       ! Beam Solar Day Schedule Name
  ,                                       ! Diffuse Solar Day Schedule Name
  0.505,                                  ! ASHRAE Taub {dimensionless}
  1.881;                                  ! ASHRAE Taud {dimensionless}

OS:ComponentData,
  {d7111667-0757-4a2c-a058-b233f86a0bfd}, ! Handle
  Component Data 1,                       ! Name
  {b0b7d15e-bda8-4427-8d64-38342eab82ba}, ! UUID
  {e77dd4bc-9a33-4c93-9527-d23c53822891}, ! Version UUID
  1366307688,                             ! Creation Timestamp
  1366307688,                             ! Version Timestamp
  {69cd6cd7-32f2-47ed-8ac8-e2be5ad68ca7}; ! Name of Object 1

