
OS:Version,
  {3b0b383f-c8f5-412f-9ad9-1543bb64b35b}, ! Handle
  0.9.3;                                  ! Version Identifier

OS:SizingPeriod:DesignDay,
  {1f06908d-0559-4ac9-9164-e8fd2edf8742}, ! Handle
  North Platte Regional Ap Ann Clg .4% Condns WB=>MDB, ! Name
  30.9,                                   ! Maximum Dry-Bulb Temperature {C}
  14.5,                                   ! Daily Dry-Bulb Temperature Range {deltaC}
  23.5,                                   ! Humidity Indicating Conditions at Maximum Dry-Bulb {BasedOnField A3}
  91555,                                  ! Barometric Pressure {Pa}
  5.5,                                    ! Wind Speed {m/s}
  180,                                    ! Wind Direction {deg}
  0,                                      ! Sky Clearness
  0,                                      ! Rain Indicator
  0,                                      ! Snow Indicator
  21,                                     ! Day of Month
  7,                                      ! Month
  SummerDesignDay,                        ! Day Type
  0,                                      ! Daylight Saving Time Indicator
  Wetbulb,                                ! Humidity Indicating Type
  ,                                       ! Humidity Indicating Day Schedule Name
  DefaultMultipliers,                     ! Dry-Bulb Temperature Range Modifier Type
  ,                                       ! Dry-Bulb Temperature Range Modifier Schedule Name
  ASHRAETau,                              ! Solar Model Indicator
  ,                                       ! Beam Solar Day Schedule Name
  ,                                       ! Diffuse Solar Day Schedule Name
  0.417,                                  ! ASHRAE Taub {dimensionless}
  2.141;                                  ! ASHRAE Taud {dimensionless}

OS:ComponentData,
  {d8967b8a-3c25-4db6-8331-0ecf4cb29784}, ! Handle
  Component Data 1,                       ! Name
  {3bd41155-63ef-4301-b0b0-6bab749be8a2}, ! UUID
  {43447529-ca1a-45ad-9d45-b604fd3a969d}, ! Version UUID
  1366309165,                             ! Creation Timestamp
  1366309165,                             ! Version Timestamp
  {1f06908d-0559-4ac9-9164-e8fd2edf8742}; ! Name of Object 1

