
OS:Version,
  {85aef2cf-e5f0-46b1-a843-9278f2e05553}, ! Handle
  0.9.3;                                  ! Version Identifier

OS:SizingPeriod:DesignDay,
  {e8fa9e21-51ab-431f-897f-6473ecd77d18}, ! Handle
  Syracuse Ann Clg .4% Condns DB=>MWB,    ! Name
  31.6,                                   ! Maximum Dry-Bulb Temperature {C}
  10.8,                                   ! Daily Dry-Bulb Temperature Range {deltaC}
  22.8,                                   ! Humidity Indicating Conditions at Maximum Dry-Bulb {BasedOnField A3}
  99844,                                  ! Barometric Pressure {Pa}
  4.4,                                    ! Wind Speed {m/s}
  260,                                    ! Wind Direction {deg}
  0,                                      ! Sky Clearness
  0,                                      ! Rain Indicator
  0,                                      ! Snow Indicator
  21,                                     ! Day of Month
  7,                                      ! Month
  SummerDesignDay,                        ! Day Type
  0,                                      ! Daylight Saving Time Indicator
  Wetbulb,                                ! Humidity Indicating Type
  ,                                       ! Humidity Indicating Day Schedule Name
  DefaultMultipliers,                     ! Dry-Bulb Temperature Range Modifier Type
  ,                                       ! Dry-Bulb Temperature Range Modifier Schedule Name
  ASHRAETau,                              ! Solar Model Indicator
  ,                                       ! Beam Solar Day Schedule Name
  ,                                       ! Diffuse Solar Day Schedule Name
  0.47,                                   ! ASHRAE Taub {dimensionless}
  1.975;                                  ! ASHRAE Taud {dimensionless}

OS:ComponentData,
  {d9cc45ea-f5bb-41f2-b3cc-2d91433983ee}, ! Handle
  Component Data 1,                       ! Name
  {3834dcf3-6783-4756-a829-eec9f4c7c48e}, ! UUID
  {8a26b2d3-994d-415a-9fea-9586c33b353d}, ! Version UUID
  1366309729,                             ! Creation Timestamp
  1366309729,                             ! Version Timestamp
  {e8fa9e21-51ab-431f-897f-6473ecd77d18}; ! Name of Object 1

