
OS:Version,
  {3c9eab16-a06b-4e91-8780-224e47b6df3b}, ! Handle
  0.9.3;                                  ! Version Identifier

OS:SizingPeriod:DesignDay,
  {596ecc8c-9777-4462-aece-72c6fb9e7a47}, ! Handle
  New Bern Craven Co Regl Ap Ann Clg 1% Condns Enth=>MDB, ! Name
  31,                                     ! Maximum Dry-Bulb Temperature {C}
  9.3,                                    ! Daily Dry-Bulb Temperature Range {deltaC}
  81100,                                  ! Humidity Indicating Conditions at Maximum Dry-Bulb {BasedOnField A3}
  101265,                                 ! Barometric Pressure {Pa}
  3.6,                                    ! Wind Speed {m/s}
  240,                                    ! Wind Direction {deg}
  0,                                      ! Sky Clearness
  0,                                      ! Rain Indicator
  0,                                      ! Snow Indicator
  21,                                     ! Day of Month
  7,                                      ! Month
  SummerDesignDay,                        ! Day Type
  0,                                      ! Daylight Saving Time Indicator
  Enthalpy,                               ! Humidity Indicating Type
  ,                                       ! Humidity Indicating Day Schedule Name
  DefaultMultipliers,                     ! Dry-Bulb Temperature Range Modifier Type
  ,                                       ! Dry-Bulb Temperature Range Modifier Schedule Name
  ASHRAETau,                              ! Solar Model Indicator
  ,                                       ! Beam Solar Day Schedule Name
  ,                                       ! Diffuse Solar Day Schedule Name
  0.591,                                  ! ASHRAE Taub {dimensionless}
  1.715;                                  ! ASHRAE Taud {dimensionless}

OS:ComponentData,
  {08b82d4b-8967-4488-b275-d7b2ce1000c7}, ! Handle
  Component Data 1,                       ! Name
  {5f3ac1c5-ebde-44fd-aa6d-eed83f146743}, ! UUID
  {c25ee48a-4def-4e13-8b14-598059f71a97}, ! Version UUID
  1366308953,                             ! Creation Timestamp
  1366308953,                             ! Version Timestamp
  {596ecc8c-9777-4462-aece-72c6fb9e7a47}; ! Name of Object 1

