
OS:Version,
  {82f2cc66-9027-4040-a00c-c3480f8e7a1a}, ! Handle
  0.9.3;                                  ! Version Identifier

OS:SizingPeriod:DesignDay,
  {b6749eec-b4c4-4852-93b3-6ab6efe7c0e9}, ! Handle
  Omaha/Eppley Airfield Ann Clg 1% Condns WB=>MDB, ! Name
  31,                                     ! Maximum Dry-Bulb Temperature {C}
  11,                                     ! Daily Dry-Bulb Temperature Range {deltaC}
  25.2,                                   ! Humidity Indicating Conditions at Maximum Dry-Bulb {BasedOnField A3}
  97784,                                  ! Barometric Pressure {Pa}
  6.1,                                    ! Wind Speed {m/s}
  180,                                    ! Wind Direction {deg}
  0,                                      ! Sky Clearness
  0,                                      ! Rain Indicator
  0,                                      ! Snow Indicator
  21,                                     ! Day of Month
  7,                                      ! Month
  SummerDesignDay,                        ! Day Type
  0,                                      ! Daylight Saving Time Indicator
  Wetbulb,                                ! Humidity Indicating Type
  ,                                       ! Humidity Indicating Day Schedule Name
  DefaultMultipliers,                     ! Dry-Bulb Temperature Range Modifier Type
  ,                                       ! Dry-Bulb Temperature Range Modifier Schedule Name
  ASHRAETau,                              ! Solar Model Indicator
  ,                                       ! Beam Solar Day Schedule Name
  ,                                       ! Diffuse Solar Day Schedule Name
  0.421,                                  ! ASHRAE Taub {dimensionless}
  2.196;                                  ! ASHRAE Taud {dimensionless}

OS:ComponentData,
  {0ac39558-eccc-481b-b51b-6d974eddc080}, ! Handle
  Component Data 1,                       ! Name
  {75953db4-a9fb-4ef3-9975-641f7f41035f}, ! UUID
  {3b129a29-504a-444e-a663-79d3b0ab46b4}, ! Version UUID
  1366309169,                             ! Creation Timestamp
  1366309169,                             ! Version Timestamp
  {b6749eec-b4c4-4852-93b3-6ab6efe7c0e9}; ! Name of Object 1

