
OS:Version,
  {485da10e-6e22-4c23-8e50-961a205463d0}, ! Handle
  0.9.3;                                  ! Version Identifier

OS:SizingPeriod:DesignDay,
  {22235636-9b5a-4bd7-bc75-b06256f6745d}, ! Handle
  Southern Pines Awos Ann Htg Wind 99.6% Condns WS=>MCDB, ! Name
  14.6,                                   ! Maximum Dry-Bulb Temperature {C}
  0,                                      ! Daily Dry-Bulb Temperature Range {deltaC}
  14.6,                                   ! Humidity Indicating Conditions at Maximum Dry-Bulb {BasedOnField A3}
  99643,                                  ! Barometric Pressure {Pa}
  9.2,                                    ! Wind Speed {m/s}
  260,                                    ! Wind Direction {deg}
  0,                                      ! Sky Clearness
  0,                                      ! Rain Indicator
  0,                                      ! Snow Indicator
  21,                                     ! Day of Month
  1,                                      ! Month
  WinterDesignDay,                        ! Day Type
  0,                                      ! Daylight Saving Time Indicator
  Wetbulb,                                ! Humidity Indicating Type
  ,                                       ! Humidity Indicating Day Schedule Name
  DefaultMultipliers,                     ! Dry-Bulb Temperature Range Modifier Type
  ,                                       ! Dry-Bulb Temperature Range Modifier Schedule Name
  ASHRAEClearSky;                         ! Solar Model Indicator

OS:ComponentData,
  {7041895d-ff8c-4437-97ad-4709196c52cc}, ! Handle
  Component Data 1,                       ! Name
  {a32c8cce-b2c9-47bd-91a8-8e8d0243a3ee}, ! UUID
  {de8c5cec-3ab2-450a-8a90-65be7eea4705}, ! Version UUID
  1366308978,                             ! Creation Timestamp
  1366308978,                             ! Version Timestamp
  {22235636-9b5a-4bd7-bc75-b06256f6745d}; ! Name of Object 1

