
OS:Version,
  {c793f3a9-dcf0-4410-812e-11eec22f21fe}, ! Handle
  0.9.3;                                  ! Version Identifier

OS:SizingPeriod:DesignDay,
  {d3caa985-4cec-4b01-a891-2ef760e59c00}, ! Handle
  NEW_YORK Ann Clg .4% Condns DB=>MWB,    ! Name
  32.1,                                   ! Maximum Dry-Bulb Temperature {C}
  7.4,                                    ! Daily Dry-Bulb Temperature Range {deltaC}
  23.1,                                   ! Humidity Indicating Conditions at Maximum Dry-Bulb {BasedOnField A3}
  100642,                                 ! Barometric Pressure {Pa}
  5.6,                                    ! Wind Speed {m/s}
  230,                                    ! Wind Direction {deg}
  0,                                      ! Sky Clearness
  0,                                      ! Rain Indicator
  0,                                      ! Snow Indicator
  21,                                     ! Day of Month
  7,                                      ! Month
  SummerDesignDay,                        ! Day Type
  0,                                      ! Daylight Saving Time Indicator
  Wetbulb,                                ! Humidity Indicating Type
  ,                                       ! Humidity Indicating Day Schedule Name
  DefaultMultipliers,                     ! Dry-Bulb Temperature Range Modifier Type
  ,                                       ! Dry-Bulb Temperature Range Modifier Schedule Name
  ASHRAETau,                              ! Solar Model Indicator
  ,                                       ! Beam Solar Day Schedule Name
  ,                                       ! Diffuse Solar Day Schedule Name
  0.541,                                  ! ASHRAE Taub {dimensionless}
  1.8;                                    ! ASHRAE Taud {dimensionless}

OS:ComponentData,
  {56bca9fd-07d9-4db9-a9dd-4b2779a40afd}, ! Handle
  Component Data 1,                       ! Name
  {d5c6d8fa-3bbc-4605-b03d-ef86c9e71574}, ! UUID
  {c61df6ab-7a4a-44b5-940f-d8e465516e25}, ! Version UUID
  1366309680,                             ! Creation Timestamp
  1366309680,                             ! Version Timestamp
  {d3caa985-4cec-4b01-a891-2ef760e59c00}; ! Name of Object 1

