
OS:Version,
  {0d9a541b-872d-443e-a598-de8d1d05e77e}, ! Handle
  0.9.3;                                  ! Version Identifier

OS:SizingPeriod:DesignDay,
  {bb109318-9cc0-4cd8-8324-f63b4b56230e}, ! Handle
  Minot/Int'l Airport Ann Htg Wind 99% Condns WS=>MCDB, ! Name
  -9.3,                                   ! Maximum Dry-Bulb Temperature {C}
  0,                                      ! Daily Dry-Bulb Temperature Range {deltaC}
  -9.3,                                   ! Humidity Indicating Conditions at Maximum Dry-Bulb {BasedOnField A3}
  95198,                                  ! Barometric Pressure {Pa}
  12.8,                                   ! Wind Speed {m/s}
  280,                                    ! Wind Direction {deg}
  0,                                      ! Sky Clearness
  0,                                      ! Rain Indicator
  0,                                      ! Snow Indicator
  21,                                     ! Day of Month
  1,                                      ! Month
  WinterDesignDay,                        ! Day Type
  0,                                      ! Daylight Saving Time Indicator
  Wetbulb,                                ! Humidity Indicating Type
  ,                                       ! Humidity Indicating Day Schedule Name
  DefaultMultipliers,                     ! Dry-Bulb Temperature Range Modifier Type
  ,                                       ! Dry-Bulb Temperature Range Modifier Schedule Name
  ASHRAEClearSky;                         ! Solar Model Indicator

OS:ComponentData,
  {4afa750f-7c3f-43a7-8b15-0aa2e3ad6384}, ! Handle
  Component Data 1,                       ! Name
  {0066d93c-4fd8-4b59-b750-222444b90334}, ! UUID
  {b18d819b-eb1b-4448-86ac-a36b3b7cde58}, ! Version UUID
  1366309062,                             ! Creation Timestamp
  1366309062,                             ! Version Timestamp
  {bb109318-9cc0-4cd8-8324-f63b4b56230e}; ! Name of Object 1

