
OS:Version,
  {545b4974-1ed9-46a5-8f8b-d236930f2e5d}, ! Handle
  0.9.3;                                  ! Version Identifier

OS:SizingPeriod:DesignDay,
  {66c773c6-cd6d-41c9-921e-6e9b9cde8dda}, ! Handle
  Washington Dc Dulles IntL Ar Ann Htg Wind 99.6% Condns WS=>MCDB, ! Name
  0.8,                                    ! Maximum Dry-Bulb Temperature {C}
  0,                                      ! Daily Dry-Bulb Temperature Range {deltaC}
  0.8,                                    ! Humidity Indicating Conditions at Maximum Dry-Bulb {BasedOnField A3}
  100344,                                 ! Barometric Pressure {Pa}
  11.2,                                   ! Wind Speed {m/s}
  310,                                    ! Wind Direction {deg}
  0,                                      ! Sky Clearness
  0,                                      ! Rain Indicator
  0,                                      ! Snow Indicator
  21,                                     ! Day of Month
  1,                                      ! Month
  WinterDesignDay,                        ! Day Type
  0,                                      ! Daylight Saving Time Indicator
  Wetbulb,                                ! Humidity Indicating Type
  ,                                       ! Humidity Indicating Day Schedule Name
  DefaultMultipliers,                     ! Dry-Bulb Temperature Range Modifier Type
  ,                                       ! Dry-Bulb Temperature Range Modifier Schedule Name
  ASHRAEClearSky;                         ! Solar Model Indicator

OS:ComponentData,
  {3e4682b5-9e4a-4517-99fe-851c6d98d979}, ! Handle
  Component Data 1,                       ! Name
  {d20f5342-3b97-4e29-928b-cddae1a80785}, ! UUID
  {313dc124-e140-423b-9237-7cf0017645ad}, ! Version UUID
  1366311217,                             ! Creation Timestamp
  1366311217,                             ! Version Timestamp
  {66c773c6-cd6d-41c9-921e-6e9b9cde8dda}; ! Name of Object 1

