
OS:Version,
  {ef174237-f711-4a9f-9a22-dcc6c88398c0}, ! Handle
  0.9.3;                                  ! Version Identifier

OS:SizingPeriod:DesignDay,
  {530fbaa7-12dd-4baa-8fe5-7aeea6da4960}, ! Handle
  Palm Springs Intl Ann Clg .4% Condns Enth=>MDB, ! Name
  37.6,                                   ! Maximum Dry-Bulb Temperature {C}
  14.7,                                   ! Daily Dry-Bulb Temperature Range {deltaC}
  83200,                                  ! Humidity Indicating Conditions at Maximum Dry-Bulb {BasedOnField A3}
  99595,                                  ! Barometric Pressure {Pa}
  4.7,                                    ! Wind Speed {m/s}
  320,                                    ! Wind Direction {deg}
  0,                                      ! Sky Clearness
  0,                                      ! Rain Indicator
  0,                                      ! Snow Indicator
  21,                                     ! Day of Month
  7,                                      ! Month
  SummerDesignDay,                        ! Day Type
  0,                                      ! Daylight Saving Time Indicator
  Enthalpy,                               ! Humidity Indicating Type
  ,                                       ! Humidity Indicating Day Schedule Name
  DefaultMultipliers,                     ! Dry-Bulb Temperature Range Modifier Type
  ,                                       ! Dry-Bulb Temperature Range Modifier Schedule Name
  ASHRAETau,                              ! Solar Model Indicator
  ,                                       ! Beam Solar Day Schedule Name
  ,                                       ! Diffuse Solar Day Schedule Name
  0.485,                                  ! ASHRAE Taub {dimensionless}
  1.942;                                  ! ASHRAE Taud {dimensionless}

