
OS:Version,
  {1dc3d52a-41b2-4e6d-b4d8-563d2f632257}, ! Handle
  0.9.3;                                  ! Version Identifier

OS:SizingPeriod:DesignDay,
  {d033a537-6a6b-44e6-bb58-bae839794ec9}, ! Handle
  Savannah Ann Htg 99% Condns DB,         ! Name
  -0.8,                                   ! Maximum Dry-Bulb Temperature {C}
  0,                                      ! Daily Dry-Bulb Temperature Range {deltaC}
  -0.8,                                   ! Humidity Indicating Conditions at Maximum Dry-Bulb {BasedOnField A3}
  101145,                                 ! Barometric Pressure {Pa}
  2.1,                                    ! Wind Speed {m/s}
  300,                                    ! Wind Direction {deg}
  0,                                      ! Sky Clearness
  0,                                      ! Rain Indicator
  0,                                      ! Snow Indicator
  21,                                     ! Day of Month
  1,                                      ! Month
  WinterDesignDay,                        ! Day Type
  0,                                      ! Daylight Saving Time Indicator
  Wetbulb,                                ! Humidity Indicating Type
  ,                                       ! Humidity Indicating Day Schedule Name
  DefaultMultipliers,                     ! Dry-Bulb Temperature Range Modifier Type
  ,                                       ! Dry-Bulb Temperature Range Modifier Schedule Name
  ASHRAEClearSky;                         ! Solar Model Indicator

OS:ComponentData,
  {91beb179-8878-4ebf-b08b-bbb12b5726e1}, ! Handle
  Component Data 1,                       ! Name
  {271ff44c-5801-41b7-9c74-12ee8318e3bc}, ! UUID
  {96384fe7-cd4d-4c8b-9b44-d929c10d04b4}, ! Version UUID
  1366307052,                             ! Creation Timestamp
  1366307052,                             ! Version Timestamp
  {d033a537-6a6b-44e6-bb58-bae839794ec9}; ! Name of Object 1

