
OS:Version,
  {f26f6156-b0b7-46de-8510-c4161998ca0d}, ! Handle
  0.9.3;                                  ! Version Identifier

OS:SizingPeriod:DesignDay,
  {343b2a70-2063-47c9-b848-03c05ff9f42d}, ! Handle
  Sioux Falls Foss Field Ann Clg 1% Condns WB=>MDB, ! Name
  29.9,                                   ! Maximum Dry-Bulb Temperature {C}
  11.5,                                   ! Daily Dry-Bulb Temperature Range {deltaC}
  24.2,                                   ! Humidity Indicating Conditions at Maximum Dry-Bulb {BasedOnField A3}
  96230,                                  ! Barometric Pressure {Pa}
  6.5,                                    ! Wind Speed {m/s}
  180,                                    ! Wind Direction {deg}
  0,                                      ! Sky Clearness
  0,                                      ! Rain Indicator
  0,                                      ! Snow Indicator
  21,                                     ! Day of Month
  7,                                      ! Month
  SummerDesignDay,                        ! Day Type
  0,                                      ! Daylight Saving Time Indicator
  Wetbulb,                                ! Humidity Indicating Type
  ,                                       ! Humidity Indicating Day Schedule Name
  DefaultMultipliers,                     ! Dry-Bulb Temperature Range Modifier Type
  ,                                       ! Dry-Bulb Temperature Range Modifier Schedule Name
  ASHRAETau,                              ! Solar Model Indicator
  ,                                       ! Beam Solar Day Schedule Name
  ,                                       ! Diffuse Solar Day Schedule Name
  0.392,                                  ! ASHRAE Taub {dimensionless}
  2.283;                                  ! ASHRAE Taud {dimensionless}

OS:ComponentData,
  {3894923b-a3f0-483f-a570-d8621a8d7766}, ! Handle
  Component Data 1,                       ! Name
  {a419b9e2-f649-4d31-9065-434ad71370ef}, ! UUID
  {f3e39e56-d67c-4c29-96da-f88f0014e508}, ! Version UUID
  1366310460,                             ! Creation Timestamp
  1366310460,                             ! Version Timestamp
  {343b2a70-2063-47c9-b848-03c05ff9f42d}; ! Name of Object 1

