
OS:Version,
  {13772f1b-94ad-429e-8400-80b2e4baa049}, ! Handle
  0.9.3;                                  ! Version Identifier

OS:SizingPeriod:DesignDay,
  {57ba3b03-62cf-4a74-b300-662b6d29e3d0}, ! Handle
  Vernal Ann Htg Wind 99.6% Condns WS=>MCDB, ! Name
  1.1,                                    ! Maximum Dry-Bulb Temperature {C}
  0,                                      ! Daily Dry-Bulb Temperature Range {deltaC}
  1.1,                                    ! Humidity Indicating Conditions at Maximum Dry-Bulb {BasedOnField A3}
  83441,                                  ! Barometric Pressure {Pa}
  8.8,                                    ! Wind Speed {m/s}
  290,                                    ! Wind Direction {deg}
  0,                                      ! Sky Clearness
  0,                                      ! Rain Indicator
  0,                                      ! Snow Indicator
  21,                                     ! Day of Month
  12,                                     ! Month
  WinterDesignDay,                        ! Day Type
  0,                                      ! Daylight Saving Time Indicator
  Wetbulb,                                ! Humidity Indicating Type
  ,                                       ! Humidity Indicating Day Schedule Name
  DefaultMultipliers,                     ! Dry-Bulb Temperature Range Modifier Type
  ,                                       ! Dry-Bulb Temperature Range Modifier Schedule Name
  ASHRAEClearSky;                         ! Solar Model Indicator

OS:ComponentData,
  {56aeb012-c417-499b-a3d1-304333cc744f}, ! Handle
  Component Data 1,                       ! Name
  {b6d6c1c0-11c9-4d76-a457-44e53f1118b5}, ! UUID
  {1f0f177a-dc63-4b47-b84e-ea8a12991a8f}, ! Version UUID
  1366311003,                             ! Creation Timestamp
  1366311003,                             ! Version Timestamp
  {57ba3b03-62cf-4a74-b300-662b6d29e3d0}; ! Name of Object 1

