
OS:Version,
  {27147430-c18b-4d9e-a978-6f93b4db0513}, ! Handle
  0.9.3;                                  ! Version Identifier

OS:SizingPeriod:DesignDay,
  {50f3aba9-abef-401f-ba6f-9e5a1e6c2a2e}, ! Handle
  Norfolk Ann Hum_n 99% Condns DP=>MCDB,  ! Name
  -0.9,                                   ! Maximum Dry-Bulb Temperature {C}
  0,                                      ! Daily Dry-Bulb Temperature Range {deltaC}
  -13.4,                                  ! Humidity Indicating Conditions at Maximum Dry-Bulb {BasedOnField A3}
  101217,                                 ! Barometric Pressure {Pa}
  4.8,                                    ! Wind Speed {m/s}
  0,                                      ! Wind Direction {deg}
  0,                                      ! Sky Clearness
  0,                                      ! Rain Indicator
  0,                                      ! Snow Indicator
  21,                                     ! Day of Month
  1,                                      ! Month
  WinterDesignDay,                        ! Day Type
  0,                                      ! Daylight Saving Time Indicator
  Dewpoint,                               ! Humidity Indicating Type
  ,                                       ! Humidity Indicating Day Schedule Name
  DefaultMultipliers,                     ! Dry-Bulb Temperature Range Modifier Type
  ,                                       ! Dry-Bulb Temperature Range Modifier Schedule Name
  ASHRAEClearSky;                         ! Solar Model Indicator

OS:ComponentData,
  {c0f93978-f261-423a-a955-a4c660db1fd6}, ! Handle
  Component Data 1,                       ! Name
  {d7ae2d4e-1308-4c09-8aca-7773b7b970c0}, ! UUID
  {5a534123-67a0-46a3-9130-217518cf5c57}, ! Version UUID
  1366311128,                             ! Creation Timestamp
  1366311128,                             ! Version Timestamp
  {50f3aba9-abef-401f-ba6f-9e5a1e6c2a2e}; ! Name of Object 1

