
OS:Version,
  {0e374fd5-8e34-4123-9a9a-a0acb6770407}, ! Handle
  0.9.3;                                  ! Version Identifier

OS:SizingPeriod:DesignDay,
  {009b3b14-3d1c-4c28-9155-151b91792083}, ! Handle
  Palm Springs Thermal Ap Ann Clg .4% Condns DB=>MWB, ! Name
  44.1,                                   ! Maximum Dry-Bulb Temperature {C}
  16.8,                                   ! Daily Dry-Bulb Temperature Range {deltaC}
  22.9,                                   ! Humidity Indicating Conditions at Maximum Dry-Bulb {BasedOnField A3}
  101734,                                 ! Barometric Pressure {Pa}
  3.4,                                    ! Wind Speed {m/s}
  140,                                    ! Wind Direction {deg}
  0,                                      ! Sky Clearness
  0,                                      ! Rain Indicator
  0,                                      ! Snow Indicator
  21,                                     ! Day of Month
  7,                                      ! Month
  SummerDesignDay,                        ! Day Type
  0,                                      ! Daylight Saving Time Indicator
  Wetbulb,                                ! Humidity Indicating Type
  ,                                       ! Humidity Indicating Day Schedule Name
  DefaultMultipliers,                     ! Dry-Bulb Temperature Range Modifier Type
  ,                                       ! Dry-Bulb Temperature Range Modifier Schedule Name
  ASHRAETau,                              ! Solar Model Indicator
  ,                                       ! Beam Solar Day Schedule Name
  ,                                       ! Diffuse Solar Day Schedule Name
  0.511,                                  ! ASHRAE Taub {dimensionless}
  1.868;                                  ! ASHRAE Taud {dimensionless}

OS:ComponentData,
  {774d447d-98e2-4bfd-b4f3-0bfd2c14e5a1}, ! Handle
  Component Data 1,                       ! Name
  {a21ce7a7-a538-4978-8714-c7f26ee4458e}, ! UUID
  {6bb22d2e-87a3-4c7b-b70f-3942e7c768af}, ! Version UUID
  1366306527,                             ! Creation Timestamp
  1366306527,                             ! Version Timestamp
  {009b3b14-3d1c-4c28-9155-151b91792083}; ! Name of Object 1

