
OS:Version,
  {0d264945-babe-49c3-9435-20fbd4b08462}, ! Handle
  0.9.3;                                  ! Version Identifier

OS:SizingPeriod:DesignDay,
  {8572dd3f-927b-4256-ad6d-103fa65be545}, ! Handle
  WICHITA Ann Htg Wind 99.6% Condns WS=>MCDB, ! Name
  3.6,                                    ! Maximum Dry-Bulb Temperature {C}
  0,                                      ! Daily Dry-Bulb Temperature Range {deltaC}
  3.6,                                    ! Humidity Indicating Conditions at Maximum Dry-Bulb {BasedOnField A3}
  96519,                                  ! Barometric Pressure {Pa}
  13.4,                                   ! Wind Speed {m/s}
  0,                                      ! Wind Direction {deg}
  0,                                      ! Sky Clearness
  0,                                      ! Rain Indicator
  0,                                      ! Snow Indicator
  21,                                     ! Day of Month
  1,                                      ! Month
  WinterDesignDay,                        ! Day Type
  0,                                      ! Daylight Saving Time Indicator
  Wetbulb,                                ! Humidity Indicating Type
  ,                                       ! Humidity Indicating Day Schedule Name
  DefaultMultipliers,                     ! Dry-Bulb Temperature Range Modifier Type
  ,                                       ! Dry-Bulb Temperature Range Modifier Schedule Name
  ASHRAEClearSky;                         ! Solar Model Indicator

OS:ComponentData,
  {ac993738-976d-47ae-85f4-fa8cba5d2fb3}, ! Handle
  Component Data 1,                       ! Name
  {8a55644a-30b2-413b-83aa-fd19a9afb8cf}, ! UUID
  {ee34f2b1-282f-4dbe-bddd-52f493151dd5}, ! Version UUID
  1366307606,                             ! Creation Timestamp
  1366307606,                             ! Version Timestamp
  {8572dd3f-927b-4256-ad6d-103fa65be545}; ! Name of Object 1

