
OS:Version,
  {ad1258a7-b831-4c6a-b12c-9e8a6d0364c6}, ! Handle
  0.9.3;                                  ! Version Identifier

OS:SizingPeriod:DesignDay,
  {bd02a6c1-4955-42dc-9140-2c003b71c541}, ! Handle
  NORTH_BEND Ann Hum_n 99.6% Condns DP=>MCDB, ! Name
  2.4,                                    ! Maximum Dry-Bulb Temperature {C}
  0,                                      ! Daily Dry-Bulb Temperature Range {deltaC}
  -5.2,                                   ! Humidity Indicating Conditions at Maximum Dry-Bulb {BasedOnField A3}
  101265,                                 ! Barometric Pressure {Pa}
  2.6,                                    ! Wind Speed {m/s}
  150,                                    ! Wind Direction {deg}
  0,                                      ! Sky Clearness
  0,                                      ! Rain Indicator
  0,                                      ! Snow Indicator
  21,                                     ! Day of Month
  12,                                     ! Month
  WinterDesignDay,                        ! Day Type
  0,                                      ! Daylight Saving Time Indicator
  Dewpoint,                               ! Humidity Indicating Type
  ,                                       ! Humidity Indicating Day Schedule Name
  DefaultMultipliers,                     ! Dry-Bulb Temperature Range Modifier Type
  ,                                       ! Dry-Bulb Temperature Range Modifier Schedule Name
  ASHRAEClearSky;                         ! Solar Model Indicator

OS:ComponentData,
  {9add06c6-3dff-46f8-adef-4593baac8330}, ! Handle
  Component Data 1,                       ! Name
  {f1205184-5329-49d1-89df-dcd14f7d93ef}, ! UUID
  {19a94c58-61a3-464f-9cb5-a623471892f5}, ! Version UUID
  1366310044,                             ! Creation Timestamp
  1366310044,                             ! Version Timestamp
  {bd02a6c1-4955-42dc-9140-2c003b71c541}; ! Name of Object 1

