
OS:Version,
  {8a23a18a-8ab7-4f04-a223-4fd66eddfe7d}, ! Handle
  0.9.3;                                  ! Version Identifier

OS:SizingPeriod:DesignDay,
  {8170090c-ca0a-49d4-ba08-f68bcac91129}, ! Handle
  Traverse City Ann Hum_n 99% Condns DP=>MCDB, ! Name
  -14.4,                                  ! Maximum Dry-Bulb Temperature {C}
  0,                                      ! Daily Dry-Bulb Temperature Range {deltaC}
  -18.9,                                  ! Humidity Indicating Conditions at Maximum Dry-Bulb {BasedOnField A3}
  99063,                                  ! Barometric Pressure {Pa}
  2.5,                                    ! Wind Speed {m/s}
  190,                                    ! Wind Direction {deg}
  0,                                      ! Sky Clearness
  0,                                      ! Rain Indicator
  0,                                      ! Snow Indicator
  21,                                     ! Day of Month
  1,                                      ! Month
  WinterDesignDay,                        ! Day Type
  0,                                      ! Daylight Saving Time Indicator
  Dewpoint,                               ! Humidity Indicating Type
  ,                                       ! Humidity Indicating Day Schedule Name
  DefaultMultipliers,                     ! Dry-Bulb Temperature Range Modifier Type
  ,                                       ! Dry-Bulb Temperature Range Modifier Schedule Name
  ASHRAEClearSky;                         ! Solar Model Indicator

OS:ComponentData,
  {59be0925-d79b-49a0-84a1-a8820e82c8e8}, ! Handle
  Component Data 1,                       ! Name
  {ce6377b8-600c-4e7a-838d-6ec0b616b1cc}, ! UUID
  {a9264806-229b-45b5-93ec-8dee9d55cdc5}, ! Version UUID
  1366308120,                             ! Creation Timestamp
  1366308120,                             ! Version Timestamp
  {8170090c-ca0a-49d4-ba08-f68bcac91129}; ! Name of Object 1

