
OS:Version,
  {d8facd25-5f63-4e3d-a09c-f6d055396e97}, ! Handle
  0.9.3;                                  ! Version Identifier

OS:SizingPeriod:DesignDay,
  {40ec52a7-4b1f-445b-ad78-42e99f638e52}, ! Handle
  Oscoda Wurtsmith Afb Ann Hum_n 99.6% Condns DP=>MCDB, ! Name
  -17,                                    ! Maximum Dry-Bulb Temperature {C}
  0,                                      ! Daily Dry-Bulb Temperature Range {deltaC}
  -23.6,                                  ! Humidity Indicating Conditions at Maximum Dry-Bulb {BasedOnField A3}
  99087,                                  ! Barometric Pressure {Pa}
  2.6,                                    ! Wind Speed {m/s}
  230,                                    ! Wind Direction {deg}
  0,                                      ! Sky Clearness
  0,                                      ! Rain Indicator
  0,                                      ! Snow Indicator
  21,                                     ! Day of Month
  1,                                      ! Month
  WinterDesignDay,                        ! Day Type
  0,                                      ! Daylight Saving Time Indicator
  Dewpoint,                               ! Humidity Indicating Type
  ,                                       ! Humidity Indicating Day Schedule Name
  DefaultMultipliers,                     ! Dry-Bulb Temperature Range Modifier Type
  ,                                       ! Dry-Bulb Temperature Range Modifier Schedule Name
  ASHRAEClearSky;                         ! Solar Model Indicator

OS:ComponentData,
  {b051fc9c-2f0d-4842-addb-a26345c55493}, ! Handle
  Component Data 1,                       ! Name
  {d8d24812-0702-4dcc-8f03-5282ed90850a}, ! UUID
  {c534da1a-de26-45a3-81c3-4fe9f32fd4fe}, ! Version UUID
  1366308083,                             ! Creation Timestamp
  1366308083,                             ! Version Timestamp
  {40ec52a7-4b1f-445b-ad78-42e99f638e52}; ! Name of Object 1

