
OS:Version,
  {d362cb3b-7517-4d59-86f9-6f300fc3ac3d}, ! Handle
  0.9.3;                                  ! Version Identifier

OS:SizingPeriod:DesignDay,
  {20181ac4-d267-44c9-b61e-8693fd5c388d}, ! Handle
  Tekamah  Asos Ann Clg 2% Condns DB=>MWB, ! Name
  32,                                     ! Maximum Dry-Bulb Temperature {C}
  11.8,                                   ! Daily Dry-Bulb Temperature Range {deltaC}
  23.4,                                   ! Humidity Indicating Conditions at Maximum Dry-Bulb {BasedOnField A3}
  97633,                                  ! Barometric Pressure {Pa}
  6.6,                                    ! Wind Speed {m/s}
  180,                                    ! Wind Direction {deg}
  0,                                      ! Sky Clearness
  0,                                      ! Rain Indicator
  0,                                      ! Snow Indicator
  21,                                     ! Day of Month
  7,                                      ! Month
  SummerDesignDay,                        ! Day Type
  0,                                      ! Daylight Saving Time Indicator
  Wetbulb,                                ! Humidity Indicating Type
  ,                                       ! Humidity Indicating Day Schedule Name
  DefaultMultipliers,                     ! Dry-Bulb Temperature Range Modifier Type
  ,                                       ! Dry-Bulb Temperature Range Modifier Schedule Name
  ASHRAETau,                              ! Solar Model Indicator
  ,                                       ! Beam Solar Day Schedule Name
  ,                                       ! Diffuse Solar Day Schedule Name
  0.417,                                  ! ASHRAE Taub {dimensionless}
  2.204;                                  ! ASHRAE Taud {dimensionless}

OS:ComponentData,
  {947f791d-819d-4ff3-8ba1-e20124b46069}, ! Handle
  Component Data 1,                       ! Name
  {f236ec08-1828-49db-bc6b-d6cabb1f80a2}, ! UUID
  {1e939308-bb4c-4d1f-85a7-17ae41b23a88}, ! Version UUID
  1366309206,                             ! Creation Timestamp
  1366309206,                             ! Version Timestamp
  {20181ac4-d267-44c9-b61e-8693fd5c388d}; ! Name of Object 1

