
OS:Version,
  {fe7d6de6-9e96-4011-8cf1-54ab6749ac5d}, ! Handle
  0.9.3;                                  ! Version Identifier

OS:SizingPeriod:DesignDay,
  {21979694-e57a-41fd-a9dc-e4da61619ad8}, ! Handle
  Parkersburg Wood County Ap Ann Htg 99.6% Condns DB, ! Name
  -14.8,                                  ! Maximum Dry-Bulb Temperature {C}
  0,                                      ! Daily Dry-Bulb Temperature Range {deltaC}
  -14.8,                                  ! Humidity Indicating Conditions at Maximum Dry-Bulb {BasedOnField A3}
  98322,                                  ! Barometric Pressure {Pa}
  2.6,                                    ! Wind Speed {m/s}
  240,                                    ! Wind Direction {deg}
  0,                                      ! Sky Clearness
  0,                                      ! Rain Indicator
  0,                                      ! Snow Indicator
  21,                                     ! Day of Month
  1,                                      ! Month
  WinterDesignDay,                        ! Day Type
  0,                                      ! Daylight Saving Time Indicator
  Wetbulb,                                ! Humidity Indicating Type
  ,                                       ! Humidity Indicating Day Schedule Name
  DefaultMultipliers,                     ! Dry-Bulb Temperature Range Modifier Type
  ,                                       ! Dry-Bulb Temperature Range Modifier Schedule Name
  ASHRAEClearSky;                         ! Solar Model Indicator

OS:ComponentData,
  {05675498-6e11-488b-9494-5dd9ba0fe7a3}, ! Handle
  Component Data 1,                       ! Name
  {0c605e90-2cbf-4b11-8cda-f4dde89c2a80}, ! UUID
  {aef2278a-7c2b-4cb8-966e-a4dc7d931f14}, ! Version UUID
  1366311675,                             ! Creation Timestamp
  1366311675,                             ! Version Timestamp
  {21979694-e57a-41fd-a9dc-e4da61619ad8}; ! Name of Object 1

