
OS:Version,
  {8268b158-66fb-4c68-9c34-067fc3c2d9fd}, ! Handle
  0.9.3;                                  ! Version Identifier

OS:SizingPeriod:DesignDay,
  {e6a92040-4a2a-4863-b7a7-d30e45e155f7}, ! Handle
  Mountain View/Moffet N Ann Clg 2% Condns WB=>MDB, ! Name
  25.4,                                   ! Maximum Dry-Bulb Temperature {C}
  9.5,                                    ! Daily Dry-Bulb Temperature Range {deltaC}
  18.7,                                   ! Humidity Indicating Conditions at Maximum Dry-Bulb {BasedOnField A3}
  101181,                                 ! Barometric Pressure {Pa}
  3.9,                                    ! Wind Speed {m/s}
  340,                                    ! Wind Direction {deg}
  0,                                      ! Sky Clearness
  0,                                      ! Rain Indicator
  0,                                      ! Snow Indicator
  21,                                     ! Day of Month
  7,                                      ! Month
  SummerDesignDay,                        ! Day Type
  0,                                      ! Daylight Saving Time Indicator
  Wetbulb,                                ! Humidity Indicating Type
  ,                                       ! Humidity Indicating Day Schedule Name
  DefaultMultipliers,                     ! Dry-Bulb Temperature Range Modifier Type
  ,                                       ! Dry-Bulb Temperature Range Modifier Schedule Name
  ASHRAETau,                              ! Solar Model Indicator
  ,                                       ! Beam Solar Day Schedule Name
  ,                                       ! Diffuse Solar Day Schedule Name
  0.378,                                  ! ASHRAE Taub {dimensionless}
  2.37;                                   ! ASHRAE Taud {dimensionless}

OS:ComponentData,
  {2195d88b-e873-4a5c-9b6c-12f0c39ac995}, ! Handle
  Component Data 1,                       ! Name
  {bb2c3a8c-e3bd-44a1-9c07-516e12748a46}, ! UUID
  {25a5e2c2-ba26-47a9-a68d-0e58d6e53f73}, ! Version UUID
  1366306506,                             ! Creation Timestamp
  1366306506,                             ! Version Timestamp
  {e6a92040-4a2a-4863-b7a7-d30e45e155f7}; ! Name of Object 1

