
OS:Version,
  {f4f54723-4e99-4a91-8835-f4804f3f37d4}, ! Handle
  0.9.3;                                  ! Version Identifier

OS:SizingPeriod:DesignDay,
  {eb1b5938-14fa-4e27-9bf6-b0d662b4f83f}, ! Handle
  Nome Municipal Arpt Ann Clg .4% Condns DB=>MWB, ! Name
  20.3,                                   ! Maximum Dry-Bulb Temperature {C}
  5.9,                                    ! Daily Dry-Bulb Temperature Range {deltaC}
  13.7,                                   ! Humidity Indicating Conditions at Maximum Dry-Bulb {BasedOnField A3}
  101277,                                 ! Barometric Pressure {Pa}
  4.8,                                    ! Wind Speed {m/s}
  260,                                    ! Wind Direction {deg}
  0,                                      ! Sky Clearness
  0,                                      ! Rain Indicator
  0,                                      ! Snow Indicator
  21,                                     ! Day of Month
  7,                                      ! Month
  SummerDesignDay,                        ! Day Type
  0,                                      ! Daylight Saving Time Indicator
  Wetbulb,                                ! Humidity Indicating Type
  ,                                       ! Humidity Indicating Day Schedule Name
  DefaultMultipliers,                     ! Dry-Bulb Temperature Range Modifier Type
  ,                                       ! Dry-Bulb Temperature Range Modifier Schedule Name
  ASHRAETau,                              ! Solar Model Indicator
  ,                                       ! Beam Solar Day Schedule Name
  ,                                       ! Diffuse Solar Day Schedule Name
  0.408,                                  ! ASHRAE Taub {dimensionless}
  2.08;                                   ! ASHRAE Taud {dimensionless}

OS:ComponentData,
  {1db7cd64-6b4e-476c-95af-e2572b03d81f}, ! Handle
  Component Data 1,                       ! Name
  {457edb95-1968-43b6-8fd8-b23628589c38}, ! UUID
  {4453138b-287b-42bf-8c88-381486c3f61d}, ! Version UUID
  1366305463,                             ! Creation Timestamp
  1366305463,                             ! Version Timestamp
  {eb1b5938-14fa-4e27-9bf6-b0d662b4f83f}; ! Name of Object 1

