
OS:Version,
  {d7add11e-a627-4996-9c33-fa2674c48478}, ! Handle
  0.9.3;                                  ! Version Identifier

OS:SizingPeriod:DesignDay,
  {54dc3afd-c672-48f0-9cc8-41e9f889c256}, ! Handle
  Oklahoma City Will Rogers Wor Ann Clg .4% Condns Enth=>MDB, ! Name
  32.6,                                   ! Maximum Dry-Bulb Temperature {C}
  11.7,                                   ! Daily Dry-Bulb Temperature Range {deltaC}
  80000,                                  ! Humidity Indicating Conditions at Maximum Dry-Bulb {BasedOnField A3}
  96634,                                  ! Barometric Pressure {Pa}
  5.5,                                    ! Wind Speed {m/s}
  170,                                    ! Wind Direction {deg}
  0,                                      ! Sky Clearness
  0,                                      ! Rain Indicator
  0,                                      ! Snow Indicator
  21,                                     ! Day of Month
  7,                                      ! Month
  SummerDesignDay,                        ! Day Type
  0,                                      ! Daylight Saving Time Indicator
  Enthalpy,                               ! Humidity Indicating Type
  ,                                       ! Humidity Indicating Day Schedule Name
  DefaultMultipliers,                     ! Dry-Bulb Temperature Range Modifier Type
  ,                                       ! Dry-Bulb Temperature Range Modifier Schedule Name
  ASHRAETau,                              ! Solar Model Indicator
  ,                                       ! Beam Solar Day Schedule Name
  ,                                       ! Diffuse Solar Day Schedule Name
  0.426,                                  ! ASHRAE Taub {dimensionless}
  2.214;                                  ! ASHRAE Taud {dimensionless}

OS:ComponentData,
  {b07bbdb4-480c-4700-a7b3-16992e8ec56f}, ! Handle
  Component Data 1,                       ! Name
  {e6cc8e88-a121-4a68-898e-0cbbc071dadf}, ! UUID
  {2ad59109-d48d-425f-9200-16cfe10dd78f}, ! Version UUID
  1366309928,                             ! Creation Timestamp
  1366309928,                             ! Version Timestamp
  {54dc3afd-c672-48f0-9cc8-41e9f889c256}; ! Name of Object 1

