
OS:Version,
  {6ad3aae0-e58a-43a4-ad14-6c2cc2dca08d}, ! Handle
  0.9.3;                                  ! Version Identifier

OS:SizingPeriod:DesignDay,
  {f4e68790-4bb5-4fad-909b-5ee06546162d}, ! Handle
  Myrtle Beach Afb Ann Htg 99% Condns DB, ! Name
  -2,                                     ! Maximum Dry-Bulb Temperature {C}
  0,                                      ! Daily Dry-Bulb Temperature Range {deltaC}
  -2,                                     ! Humidity Indicating Conditions at Maximum Dry-Bulb {BasedOnField A3}
  101229,                                 ! Barometric Pressure {Pa}
  2.2,                                    ! Wind Speed {m/s}
  0,                                      ! Wind Direction {deg}
  0,                                      ! Sky Clearness
  0,                                      ! Rain Indicator
  0,                                      ! Snow Indicator
  21,                                     ! Day of Month
  1,                                      ! Month
  WinterDesignDay,                        ! Day Type
  0,                                      ! Daylight Saving Time Indicator
  Wetbulb,                                ! Humidity Indicating Type
  ,                                       ! Humidity Indicating Day Schedule Name
  DefaultMultipliers,                     ! Dry-Bulb Temperature Range Modifier Type
  ,                                       ! Dry-Bulb Temperature Range Modifier Schedule Name
  ASHRAEClearSky;                         ! Solar Model Indicator

OS:ComponentData,
  {795ef2bb-dfce-474e-9398-74cd365fd643}, ! Handle
  Component Data 1,                       ! Name
  {1cf8a962-c7f0-4c5e-8379-466f2aa481ca}, ! UUID
  {bc7ef0a0-5d6f-403a-bc6b-7fa4f55436c0}, ! Version UUID
  1366310371,                             ! Creation Timestamp
  1366310371,                             ! Version Timestamp
  {f4e68790-4bb5-4fad-909b-5ee06546162d}; ! Name of Object 1

