
OS:Version,
  {51c00237-c1be-4ba3-a4d7-ff517fad8ec0}, ! Handle
  0.9.3;                                  ! Version Identifier

OS:SizingPeriod:DesignDay,
  {d089de8e-9f73-4288-b3b9-9e00068cfd23}, ! Handle
  Sacramento/Mather Fiel Ann Htg Wind 99.6% Condns WS=>MCDB, ! Name
  11.7,                                   ! Maximum Dry-Bulb Temperature {C}
  0,                                      ! Daily Dry-Bulb Temperature Range {deltaC}
  11.7,                                   ! Humidity Indicating Conditions at Maximum Dry-Bulb {BasedOnField A3}
  100977,                                 ! Barometric Pressure {Pa}
  11.6,                                   ! Wind Speed {m/s}
  320,                                    ! Wind Direction {deg}
  0,                                      ! Sky Clearness
  0,                                      ! Rain Indicator
  0,                                      ! Snow Indicator
  21,                                     ! Day of Month
  12,                                     ! Month
  WinterDesignDay,                        ! Day Type
  0,                                      ! Daylight Saving Time Indicator
  Wetbulb,                                ! Humidity Indicating Type
  ,                                       ! Humidity Indicating Day Schedule Name
  DefaultMultipliers,                     ! Dry-Bulb Temperature Range Modifier Type
  ,                                       ! Dry-Bulb Temperature Range Modifier Schedule Name
  ASHRAEClearSky;                         ! Solar Model Indicator

OS:ComponentData,
  {358a7ae3-2662-434f-8d1b-72e73d03e029}, ! Handle
  Component Data 1,                       ! Name
  {131d099c-5cb9-4ccc-bec7-89f83088e3b5}, ! UUID
  {543ac8c2-d54a-4986-9297-269e7cd35c19}, ! Version UUID
  1366306560,                             ! Creation Timestamp
  1366306560,                             ! Version Timestamp
  {d089de8e-9f73-4288-b3b9-9e00068cfd23}; ! Name of Object 1

