
OS:Version,
  {96f4ba04-a22f-4988-b7ff-4aead73cfd90}, ! Handle
  0.9.3;                                  ! Version Identifier

OS:SizingPeriod:DesignDay,
  {54f3a797-5953-41e0-ae02-7eb2d00fe877}, ! Handle
  Sherman-Denison Ann Htg Wind 99.6% Condns WS=>MCDB, ! Name
  12.3,                                   ! Maximum Dry-Bulb Temperature {C}
  0,                                      ! Daily Dry-Bulb Temperature Range {deltaC}
  12.3,                                   ! Humidity Indicating Conditions at Maximum Dry-Bulb {BasedOnField A3}
  98557,                                  ! Barometric Pressure {Pa}
  11.7,                                   ! Wind Speed {m/s}
  0,                                      ! Wind Direction {deg}
  0,                                      ! Sky Clearness
  0,                                      ! Rain Indicator
  0,                                      ! Snow Indicator
  21,                                     ! Day of Month
  12,                                     ! Month
  WinterDesignDay,                        ! Day Type
  0,                                      ! Daylight Saving Time Indicator
  Wetbulb,                                ! Humidity Indicating Type
  ,                                       ! Humidity Indicating Day Schedule Name
  DefaultMultipliers,                     ! Dry-Bulb Temperature Range Modifier Type
  ,                                       ! Dry-Bulb Temperature Range Modifier Schedule Name
  ASHRAEClearSky;                         ! Solar Model Indicator

OS:ComponentData,
  {c0ece3d0-35e0-43be-976a-16d6ee52bfdc}, ! Handle
  Component Data 1,                       ! Name
  {a4a96d32-27b6-4fbf-a98e-62382483462e}, ! UUID
  {28119d0e-0e82-4244-9fb6-96327c4fb359}, ! Version UUID
  1366310901,                             ! Creation Timestamp
  1366310901,                             ! Version Timestamp
  {54f3a797-5953-41e0-ae02-7eb2d00fe877}; ! Name of Object 1

