
OS:Version,
  {b35fc843-4d87-40c0-bbca-a03d335d96b5}, ! Handle
  0.9.3;                                  ! Version Identifier

OS:SizingPeriod:DesignDay,
  {942faaef-46b1-471b-bbd3-252848ccb0de}, ! Handle
  WICHITA Ann Clg .4% Condns DB=>MWB,     ! Name
  38,                                     ! Maximum Dry-Bulb Temperature {C}
  12.1,                                   ! Daily Dry-Bulb Temperature Range {deltaC}
  22.9,                                   ! Humidity Indicating Conditions at Maximum Dry-Bulb {BasedOnField A3}
  96519,                                  ! Barometric Pressure {Pa}
  7.1,                                    ! Wind Speed {m/s}
  190,                                    ! Wind Direction {deg}
  0,                                      ! Sky Clearness
  0,                                      ! Rain Indicator
  0,                                      ! Snow Indicator
  21,                                     ! Day of Month
  7,                                      ! Month
  SummerDesignDay,                        ! Day Type
  0,                                      ! Daylight Saving Time Indicator
  Wetbulb,                                ! Humidity Indicating Type
  ,                                       ! Humidity Indicating Day Schedule Name
  DefaultMultipliers,                     ! Dry-Bulb Temperature Range Modifier Type
  ,                                       ! Dry-Bulb Temperature Range Modifier Schedule Name
  ASHRAETau,                              ! Solar Model Indicator
  ,                                       ! Beam Solar Day Schedule Name
  ,                                       ! Diffuse Solar Day Schedule Name
  0.419,                                  ! ASHRAE Taub {dimensionless}
  2.207;                                  ! ASHRAE Taud {dimensionless}

OS:ComponentData,
  {bbdd26eb-9d1a-4a20-8e14-24c74185e143}, ! Handle
  Component Data 1,                       ! Name
  {a95baaee-9237-4192-8147-7321e9fab953}, ! UUID
  {871e6d3b-9ec9-419d-bf18-f5bfa9249229}, ! Version UUID
  1366307607,                             ! Creation Timestamp
  1366307607,                             ! Version Timestamp
  {942faaef-46b1-471b-bbd3-252848ccb0de}; ! Name of Object 1

