
OS:Version,
  {dd54affd-807b-4666-a8d2-717c78a4ff61}, ! Handle
  0.9.3;                                  ! Version Identifier

OS:SizingPeriod:DesignDay,
  {0b823dcb-5991-4cc7-8ad2-e08e67fe0fdb}, ! Handle
  Trenton Mercer County Ap Ann Hum_n 99% Condns DP=>MCDB, ! Name
  -8.2,                                   ! Maximum Dry-Bulb Temperature {C}
  0,                                      ! Daily Dry-Bulb Temperature Range {deltaC}
  -18.9,                                  ! Humidity Indicating Conditions at Maximum Dry-Bulb {BasedOnField A3}
  100547,                                 ! Barometric Pressure {Pa}
  4,                                      ! Wind Speed {m/s}
  330,                                    ! Wind Direction {deg}
  0,                                      ! Sky Clearness
  0,                                      ! Rain Indicator
  0,                                      ! Snow Indicator
  21,                                     ! Day of Month
  1,                                      ! Month
  WinterDesignDay,                        ! Day Type
  0,                                      ! Daylight Saving Time Indicator
  Dewpoint,                               ! Humidity Indicating Type
  ,                                       ! Humidity Indicating Day Schedule Name
  DefaultMultipliers,                     ! Dry-Bulb Temperature Range Modifier Type
  ,                                       ! Dry-Bulb Temperature Range Modifier Schedule Name
  ASHRAEClearSky;                         ! Solar Model Indicator

OS:ComponentData,
  {33effd96-79f2-4ec2-9ef7-2099dc317abe}, ! Handle
  Component Data 1,                       ! Name
  {5a60bf14-4435-4f0c-87c9-760f4c7c98c5}, ! UUID
  {925c4ede-6168-4e3c-bbfc-178f84154d31}, ! Version UUID
  1366309350,                             ! Creation Timestamp
  1366309350,                             ! Version Timestamp
  {0b823dcb-5991-4cc7-8ad2-e08e67fe0fdb}; ! Name of Object 1

