
OS:Version,
  {bbda470e-0b28-4abe-a0a6-d0c8ec8e228a}, ! Handle
  0.9.3;                                  ! Version Identifier

OS:SizingPeriod:DesignDay,
  {b3b6e387-c5d2-42e4-8cc3-d03b4e8264a8}, ! Handle
  Marietta Dobbins Afb Ann Htg Wind 99.6% Condns WS=>MCDB, ! Name
  -1.3,                                   ! Maximum Dry-Bulb Temperature {C}
  0,                                      ! Daily Dry-Bulb Temperature Range {deltaC}
  -1.3,                                   ! Humidity Indicating Conditions at Maximum Dry-Bulb {BasedOnField A3}
  97423,                                  ! Barometric Pressure {Pa}
  10.5,                                   ! Wind Speed {m/s}
  330,                                    ! Wind Direction {deg}
  0,                                      ! Sky Clearness
  0,                                      ! Rain Indicator
  0,                                      ! Snow Indicator
  21,                                     ! Day of Month
  1,                                      ! Month
  WinterDesignDay,                        ! Day Type
  0,                                      ! Daylight Saving Time Indicator
  Wetbulb,                                ! Humidity Indicating Type
  ,                                       ! Humidity Indicating Day Schedule Name
  DefaultMultipliers,                     ! Dry-Bulb Temperature Range Modifier Type
  ,                                       ! Dry-Bulb Temperature Range Modifier Schedule Name
  ASHRAEClearSky;                         ! Solar Model Indicator

OS:ComponentData,
  {0ff118a9-67e4-4ed3-acf8-ba1e0f117d8b}, ! Handle
  Component Data 1,                       ! Name
  {0ee841a5-a1f1-48e2-ac12-f236fc387761}, ! UUID
  {f7d410b8-2430-4c36-b5ff-4dbe5ba31e67}, ! Version UUID
  1366307030,                             ! Creation Timestamp
  1366307030,                             ! Version Timestamp
  {b3b6e387-c5d2-42e4-8cc3-d03b4e8264a8}; ! Name of Object 1

