
OS:Version,
  {63bc3fc1-3780-4202-99a4-27833b0a7f4c}, ! Handle
  0.9.3;                                  ! Version Identifier

OS:SizingPeriod:DesignDay,
  {02932b43-eb0a-46d6-b4c2-3a3f4de35c59}, ! Handle
  Newport News Ann Clg .4% Condns WB=>MDB, ! Name
  32.5,                                   ! Maximum Dry-Bulb Temperature {C}
  9.9,                                    ! Daily Dry-Bulb Temperature Range {deltaC}
  26.5,                                   ! Humidity Indicating Conditions at Maximum Dry-Bulb {BasedOnField A3}
  101169,                                 ! Barometric Pressure {Pa}
  4.6,                                    ! Wind Speed {m/s}
  240,                                    ! Wind Direction {deg}
  0,                                      ! Sky Clearness
  0,                                      ! Rain Indicator
  0,                                      ! Snow Indicator
  21,                                     ! Day of Month
  7,                                      ! Month
  SummerDesignDay,                        ! Day Type
  0,                                      ! Daylight Saving Time Indicator
  Wetbulb,                                ! Humidity Indicating Type
  ,                                       ! Humidity Indicating Day Schedule Name
  DefaultMultipliers,                     ! Dry-Bulb Temperature Range Modifier Type
  ,                                       ! Dry-Bulb Temperature Range Modifier Schedule Name
  ASHRAETau,                              ! Solar Model Indicator
  ,                                       ! Beam Solar Day Schedule Name
  ,                                       ! Diffuse Solar Day Schedule Name
  0.597,                                  ! ASHRAE Taub {dimensionless}
  1.679;                                  ! ASHRAE Taud {dimensionless}

OS:ComponentData,
  {9eda57a8-ffff-4d02-9f28-ebf7f97b1200}, ! Handle
  Component Data 1,                       ! Name
  {61006094-71dc-4c3d-b445-5b41d2204329}, ! UUID
  {ea9d09c9-e887-4f43-a48e-e90262278a32}, ! Version UUID
  1366311117,                             ! Creation Timestamp
  1366311117,                             ! Version Timestamp
  {02932b43-eb0a-46d6-b4c2-3a3f4de35c59}; ! Name of Object 1

