
OS:Version,
  {7733243c-55e2-45b7-9c1f-689f86b1a051}, ! Handle
  0.9.3;                                  ! Version Identifier

OS:SizingPeriod:DesignDay,
  {dfc633a3-e52c-4f2e-a598-81f36dd02e7d}, ! Handle
  Salisbury Wicomico Co Ap Ann Clg .4% Condns DB=>MWB, ! Name
  33.8,                                   ! Maximum Dry-Bulb Temperature {C}
  10.6,                                   ! Daily Dry-Bulb Temperature Range {deltaC}
  24.8,                                   ! Humidity Indicating Conditions at Maximum Dry-Bulb {BasedOnField A3}
  101145,                                 ! Barometric Pressure {Pa}
  4.4,                                    ! Wind Speed {m/s}
  240,                                    ! Wind Direction {deg}
  0,                                      ! Sky Clearness
  0,                                      ! Rain Indicator
  0,                                      ! Snow Indicator
  21,                                     ! Day of Month
  7,                                      ! Month
  SummerDesignDay,                        ! Day Type
  0,                                      ! Daylight Saving Time Indicator
  Wetbulb,                                ! Humidity Indicating Type
  ,                                       ! Humidity Indicating Day Schedule Name
  DefaultMultipliers,                     ! Dry-Bulb Temperature Range Modifier Type
  ,                                       ! Dry-Bulb Temperature Range Modifier Schedule Name
  ASHRAETau,                              ! Solar Model Indicator
  ,                                       ! Beam Solar Day Schedule Name
  ,                                       ! Diffuse Solar Day Schedule Name
  0.58,                                   ! ASHRAE Taub {dimensionless}
  1.711;                                  ! ASHRAE Taud {dimensionless}

OS:ComponentData,
  {a39aacb1-0c2c-43d6-8da1-19018a6ab9e1}, ! Handle
  Component Data 1,                       ! Name
  {81884037-b496-4bd8-a8d8-b29fc1782fa5}, ! UUID
  {9114f33d-c31e-4783-a9cf-98511c661373}, ! Version UUID
  1366307861,                             ! Creation Timestamp
  1366307861,                             ! Version Timestamp
  {dfc633a3-e52c-4f2e-a598-81f36dd02e7d}; ! Name of Object 1

