
OS:Version,
  {19aa40c7-8486-4548-a881-57cfd1f220b5}, ! Handle
  0.9.3;                                  ! Version Identifier

OS:SizingPeriod:DesignDay,
  {4e0a9d72-94d7-4494-b491-de9dba5cf433}, ! Handle
  Roanoke Regional Ap Ann Htg 99.6% Condns DB, ! Name
  -9.9,                                   ! Maximum Dry-Bulb Temperature {C}
  0,                                      ! Daily Dry-Bulb Temperature Range {deltaC}
  -9.9,                                   ! Humidity Indicating Conditions at Maximum Dry-Bulb {BasedOnField A3}
  97190,                                  ! Barometric Pressure {Pa}
  3.9,                                    ! Wind Speed {m/s}
  300,                                    ! Wind Direction {deg}
  0,                                      ! Sky Clearness
  0,                                      ! Rain Indicator
  0,                                      ! Snow Indicator
  21,                                     ! Day of Month
  1,                                      ! Month
  WinterDesignDay,                        ! Day Type
  0,                                      ! Daylight Saving Time Indicator
  Wetbulb,                                ! Humidity Indicating Type
  ,                                       ! Humidity Indicating Day Schedule Name
  DefaultMultipliers,                     ! Dry-Bulb Temperature Range Modifier Type
  ,                                       ! Dry-Bulb Temperature Range Modifier Schedule Name
  ASHRAEClearSky;                         ! Solar Model Indicator

OS:ComponentData,
  {ba9eaa26-8b51-48fe-a417-20fd5b315e2b}, ! Handle
  Component Data 1,                       ! Name
  {6f529ae9-3cd4-4d95-b7d0-04d9c32f82ce}, ! UUID
  {33a3deca-9427-44ef-927d-ee0d285c2e24}, ! Version UUID
  1366311189,                             ! Creation Timestamp
  1366311189,                             ! Version Timestamp
  {4e0a9d72-94d7-4494-b491-de9dba5cf433}; ! Name of Object 1

