
OS:Version,
  {75a54c5d-0ef4-4b8e-955e-d5e21f4d6abc}, ! Handle
  0.9.3;                                  ! Version Identifier

OS:SizingPeriod:DesignDay,
  {bb8f323c-f528-4b09-b073-9a525763abc6}, ! Handle
  New Orleans Intl Arpt Ann Clg 2% Condns DB=>MWB, ! Name
  32.5,                                   ! Maximum Dry-Bulb Temperature {C}
  8.5,                                    ! Daily Dry-Bulb Temperature Range {deltaC}
  25.2,                                   ! Humidity Indicating Conditions at Maximum Dry-Bulb {BasedOnField A3}
  101313,                                 ! Barometric Pressure {Pa}
  3.4,                                    ! Wind Speed {m/s}
  0,                                      ! Wind Direction {deg}
  0,                                      ! Sky Clearness
  0,                                      ! Rain Indicator
  0,                                      ! Snow Indicator
  21,                                     ! Day of Month
  8,                                      ! Month
  SummerDesignDay,                        ! Day Type
  0,                                      ! Daylight Saving Time Indicator
  Wetbulb,                                ! Humidity Indicating Type
  ,                                       ! Humidity Indicating Day Schedule Name
  DefaultMultipliers,                     ! Dry-Bulb Temperature Range Modifier Type
  ,                                       ! Dry-Bulb Temperature Range Modifier Schedule Name
  ASHRAETau,                              ! Solar Model Indicator
  ,                                       ! Beam Solar Day Schedule Name
  ,                                       ! Diffuse Solar Day Schedule Name
  0.553,                                  ! ASHRAE Taub {dimensionless}
  1.821;                                  ! ASHRAE Taud {dimensionless}

OS:ComponentData,
  {1f9cc89f-c065-4daf-a00b-319f936bcda5}, ! Handle
  Component Data 1,                       ! Name
  {a14f355a-56d9-4655-b1ca-e725421ea383}, ! UUID
  {9900b670-3625-486f-b82d-478d44a31bf0}, ! Version UUID
  1366307755,                             ! Creation Timestamp
  1366307755,                             ! Version Timestamp
  {bb8f323c-f528-4b09-b073-9a525763abc6}; ! Name of Object 1

