
OS:Version,
  {54431ac0-889f-4d8b-a7ee-af4592b2f773}, ! Handle
  0.9.3;                                  ! Version Identifier

OS:SizingPeriod:DesignDay,
  {1d9459cd-57bf-4704-8548-5a0aff1c20cf}, ! Handle
  Mcallen Miller Intl Ap  Edinb Ann Hum_n 99.6% Condns DP=>MCDB, ! Name
  11.1,                                   ! Maximum Dry-Bulb Temperature {C}
  0,                                      ! Daily Dry-Bulb Temperature Range {deltaC}
  -7.2,                                   ! Humidity Indicating Conditions at Maximum Dry-Bulb {BasedOnField A3}
  100965,                                 ! Barometric Pressure {Pa}
  4.5,                                    ! Wind Speed {m/s}
  340,                                    ! Wind Direction {deg}
  0,                                      ! Sky Clearness
  0,                                      ! Rain Indicator
  0,                                      ! Snow Indicator
  21,                                     ! Day of Month
  1,                                      ! Month
  WinterDesignDay,                        ! Day Type
  0,                                      ! Daylight Saving Time Indicator
  Dewpoint,                               ! Humidity Indicating Type
  ,                                       ! Humidity Indicating Day Schedule Name
  DefaultMultipliers,                     ! Dry-Bulb Temperature Range Modifier Type
  ,                                       ! Dry-Bulb Temperature Range Modifier Schedule Name
  ASHRAEClearSky;                         ! Solar Model Indicator

OS:ComponentData,
  {afbc721d-08ea-47a5-873c-8f7c1e000bb5}, ! Handle
  Component Data 1,                       ! Name
  {b934cb4b-b894-4055-8469-50db0acaf895}, ! UUID
  {e301f8d5-776d-4cd1-be01-c0bc20de008f}, ! Version UUID
  1366310819,                             ! Creation Timestamp
  1366310819,                             ! Version Timestamp
  {1d9459cd-57bf-4704-8548-5a0aff1c20cf}; ! Name of Object 1

