
OS:Version,
  {15da9f2f-af6c-422a-968b-3fdd00d7fc41}, ! Handle
  0.9.3;                                  ! Version Identifier

OS:SizingPeriod:DesignDay,
  {8b4e5796-3621-49a6-b2b7-cb1dc59e887c}, ! Handle
  Pipestone  Awos Ann Clg 1% Condns DB=>MWB, ! Name
  30,                                     ! Maximum Dry-Bulb Temperature {C}
  10.8,                                   ! Daily Dry-Bulb Temperature Range {deltaC}
  22.9,                                   ! Humidity Indicating Conditions at Maximum Dry-Bulb {BasedOnField A3}
  95129,                                  ! Barometric Pressure {Pa}
  5.7,                                    ! Wind Speed {m/s}
  190,                                    ! Wind Direction {deg}
  0,                                      ! Sky Clearness
  0,                                      ! Rain Indicator
  0,                                      ! Snow Indicator
  21,                                     ! Day of Month
  7,                                      ! Month
  SummerDesignDay,                        ! Day Type
  0,                                      ! Daylight Saving Time Indicator
  Wetbulb,                                ! Humidity Indicating Type
  ,                                       ! Humidity Indicating Day Schedule Name
  DefaultMultipliers,                     ! Dry-Bulb Temperature Range Modifier Type
  ,                                       ! Dry-Bulb Temperature Range Modifier Schedule Name
  ASHRAETau,                              ! Solar Model Indicator
  ,                                       ! Beam Solar Day Schedule Name
  ,                                       ! Diffuse Solar Day Schedule Name
  0.387,                                  ! ASHRAE Taub {dimensionless}
  2.294;                                  ! ASHRAE Taud {dimensionless}

OS:ComponentData,
  {1fd76774-ab6e-4d57-baeb-913e616561d2}, ! Handle
  Component Data 1,                       ! Name
  {e4c9ad3c-bcd0-4e90-bccd-6a1f23551c8f}, ! UUID
  {07411731-2105-4776-b5e5-6616c2b27a3f}, ! Version UUID
  1366308365,                             ! Creation Timestamp
  1366308365,                             ! Version Timestamp
  {8b4e5796-3621-49a6-b2b7-cb1dc59e887c}; ! Name of Object 1

