
OS:Version,
  {18a8c5e3-407e-4a5c-9219-b482f0690676}, ! Handle
  0.9.3;                                  ! Version Identifier

OS:SizingPeriod:DesignDay,
  {6c23b059-8572-4a60-8d1f-592abb503861}, ! Handle
  Northway Airport Ann Clg 1% Condns DB=>MWB, ! Name
  23.5,                                   ! Maximum Dry-Bulb Temperature {C}
  11.3,                                   ! Daily Dry-Bulb Temperature Range {deltaC}
  14,                                     ! Humidity Indicating Conditions at Maximum Dry-Bulb {BasedOnField A3}
  95209,                                  ! Barometric Pressure {Pa}
  2.7,                                    ! Wind Speed {m/s}
  290,                                    ! Wind Direction {deg}
  0,                                      ! Sky Clearness
  0,                                      ! Rain Indicator
  0,                                      ! Snow Indicator
  21,                                     ! Day of Month
  7,                                      ! Month
  SummerDesignDay,                        ! Day Type
  0,                                      ! Daylight Saving Time Indicator
  Wetbulb,                                ! Humidity Indicating Type
  ,                                       ! Humidity Indicating Day Schedule Name
  DefaultMultipliers,                     ! Dry-Bulb Temperature Range Modifier Type
  ,                                       ! Dry-Bulb Temperature Range Modifier Schedule Name
  ASHRAETau,                              ! Solar Model Indicator
  ,                                       ! Beam Solar Day Schedule Name
  ,                                       ! Diffuse Solar Day Schedule Name
  0.398,                                  ! ASHRAE Taub {dimensionless}
  2.064;                                  ! ASHRAE Taud {dimensionless}

OS:ComponentData,
  {ab2d5ca8-8c9b-4622-932f-ac9b150b06b5}, ! Handle
  Component Data 1,                       ! Name
  {c49608fd-932c-4e0f-b6e5-dcde00857d98}, ! UUID
  {7a55aebe-a54d-4f83-a36b-aae41b07da6d}, ! Version UUID
  1366305470,                             ! Creation Timestamp
  1366305470,                             ! Version Timestamp
  {6c23b059-8572-4a60-8d1f-592abb503861}; ! Name of Object 1

