
OS:Version,
  {0c587501-9274-4546-bc26-6a775a1103fb}, ! Handle
  0.9.3;                                  ! Version Identifier

OS:SizingPeriod:DesignDay,
  {a12cde94-f837-4c52-b0fd-06a36fe4f5d0}, ! Handle
  Milwaukee Ann Clg .4% Condns DP=>MDB,   ! Name
  28.1,                                   ! Maximum Dry-Bulb Temperature {C}
  8.7,                                    ! Daily Dry-Bulb Temperature Range {deltaC}
  23.3,                                   ! Humidity Indicating Conditions at Maximum Dry-Bulb {BasedOnField A3}
  98816,                                  ! Barometric Pressure {Pa}
  6.4,                                    ! Wind Speed {m/s}
  240,                                    ! Wind Direction {deg}
  0,                                      ! Sky Clearness
  0,                                      ! Rain Indicator
  0,                                      ! Snow Indicator
  21,                                     ! Day of Month
  7,                                      ! Month
  SummerDesignDay,                        ! Day Type
  0,                                      ! Daylight Saving Time Indicator
  Dewpoint,                               ! Humidity Indicating Type
  ,                                       ! Humidity Indicating Day Schedule Name
  DefaultMultipliers,                     ! Dry-Bulb Temperature Range Modifier Type
  ,                                       ! Dry-Bulb Temperature Range Modifier Schedule Name
  ASHRAETau,                              ! Solar Model Indicator
  ,                                       ! Beam Solar Day Schedule Name
  ,                                       ! Diffuse Solar Day Schedule Name
  0.452,                                  ! ASHRAE Taub {dimensionless}
  2.061;                                  ! ASHRAE Taud {dimensionless}

OS:ComponentData,
  {be51e5cd-15fc-4658-9030-948bc2784676}, ! Handle
  Component Data 1,                       ! Name
  {989babbb-2747-4deb-a196-af7b9b71d136}, ! UUID
  {3d8883a7-7c63-482d-b72e-1366580553e7}, ! Version UUID
  1366311552,                             ! Creation Timestamp
  1366311552,                             ! Version Timestamp
  {a12cde94-f837-4c52-b0fd-06a36fe4f5d0}; ! Name of Object 1

