
OS:Version,
  {641b7869-519d-4e4f-bba3-f8f18e473620}, ! Handle
  0.9.3;                                  ! Version Identifier

OS:SizingPeriod:DesignDay,
  {5e2c77c8-ab00-462b-aae1-111ff15d5d12}, ! Handle
  Shreveport Downtown Ann Hum_n 99.6% Condns DP=>MCDB, ! Name
  0.8,                                    ! Maximum Dry-Bulb Temperature {C}
  0,                                      ! Daily Dry-Bulb Temperature Range {deltaC}
  -11.3,                                  ! Humidity Indicating Conditions at Maximum Dry-Bulb {BasedOnField A3}
  100666,                                 ! Barometric Pressure {Pa}
  1.8,                                    ! Wind Speed {m/s}
  40,                                     ! Wind Direction {deg}
  0,                                      ! Sky Clearness
  0,                                      ! Rain Indicator
  0,                                      ! Snow Indicator
  21,                                     ! Day of Month
  12,                                     ! Month
  WinterDesignDay,                        ! Day Type
  0,                                      ! Daylight Saving Time Indicator
  Dewpoint,                               ! Humidity Indicating Type
  ,                                       ! Humidity Indicating Day Schedule Name
  DefaultMultipliers,                     ! Dry-Bulb Temperature Range Modifier Type
  ,                                       ! Dry-Bulb Temperature Range Modifier Schedule Name
  ASHRAEClearSky;                         ! Solar Model Indicator

OS:ComponentData,
  {77b09108-7b50-42f2-9b88-beecac1b2edb}, ! Handle
  Component Data 1,                       ! Name
  {bb6301d5-16e9-44d8-a4d7-f2e7472a8f35}, ! UUID
  {4a2a35b5-dd1b-4936-83ee-dceb53ba6c27}, ! Version UUID
  1366307765,                             ! Creation Timestamp
  1366307765,                             ! Version Timestamp
  {5e2c77c8-ab00-462b-aae1-111ff15d5d12}; ! Name of Object 1

