
OS:Version,
  {feed5f97-5ab9-42be-a043-9dfc19a2b1af}, ! Handle
  0.9.3;                                  ! Version Identifier

OS:SizingPeriod:DesignDay,
  {a007c20e-54ed-4c90-a590-1af3dd4e5713}, ! Handle
  Saint George  Awos Ann Clg .4% Condns WB=>MDB, ! Name
  34.1,                                   ! Maximum Dry-Bulb Temperature {C}
  14.3,                                   ! Daily Dry-Bulb Temperature Range {deltaC}
  20.4,                                   ! Humidity Indicating Conditions at Maximum Dry-Bulb {BasedOnField A3}
  91014,                                  ! Barometric Pressure {Pa}
  6.6,                                    ! Wind Speed {m/s}
  250,                                    ! Wind Direction {deg}
  0,                                      ! Sky Clearness
  0,                                      ! Rain Indicator
  0,                                      ! Snow Indicator
  21,                                     ! Day of Month
  7,                                      ! Month
  SummerDesignDay,                        ! Day Type
  0,                                      ! Daylight Saving Time Indicator
  Wetbulb,                                ! Humidity Indicating Type
  ,                                       ! Humidity Indicating Day Schedule Name
  DefaultMultipliers,                     ! Dry-Bulb Temperature Range Modifier Type
  ,                                       ! Dry-Bulb Temperature Range Modifier Schedule Name
  ASHRAETau,                              ! Solar Model Indicator
  ,                                       ! Beam Solar Day Schedule Name
  ,                                       ! Diffuse Solar Day Schedule Name
  0.485,                                  ! ASHRAE Taub {dimensionless}
  1.844;                                  ! ASHRAE Taud {dimensionless}

OS:ComponentData,
  {e34fe413-3ffa-4ee9-88a5-a6edc7a2be1d}, ! Handle
  Component Data 1,                       ! Name
  {12fe4d12-cd1a-4638-bfad-48a1ecedcd6f}, ! UUID
  {69c38e71-9c7a-4722-8361-e426d9fe2ead}, ! Version UUID
  1366310983,                             ! Creation Timestamp
  1366310983,                             ! Version Timestamp
  {a007c20e-54ed-4c90-a590-1af3dd4e5713}; ! Name of Object 1

