
OS:Version,
  {c074733a-929a-4f51-a8cd-9c0e8b440ba1}, ! Handle
  0.9.3;                                  ! Version Identifier

OS:SizingPeriod:DesignDay,
  {ae4beab2-d407-4df1-b04c-a144b6e91d77}, ! Handle
  Montrose Co  Arpt Ann Clg 2% Condns DP=>MDB, ! Name
  20,                                     ! Maximum Dry-Bulb Temperature {C}
  16.9,                                   ! Daily Dry-Bulb Temperature Range {deltaC}
  12.9,                                   ! Humidity Indicating Conditions at Maximum Dry-Bulb {BasedOnField A3}
  81943,                                  ! Barometric Pressure {Pa}
  4.1,                                    ! Wind Speed {m/s}
  340,                                    ! Wind Direction {deg}
  0,                                      ! Sky Clearness
  0,                                      ! Rain Indicator
  0,                                      ! Snow Indicator
  21,                                     ! Day of Month
  7,                                      ! Month
  SummerDesignDay,                        ! Day Type
  0,                                      ! Daylight Saving Time Indicator
  Dewpoint,                               ! Humidity Indicating Type
  ,                                       ! Humidity Indicating Day Schedule Name
  DefaultMultipliers,                     ! Dry-Bulb Temperature Range Modifier Type
  ,                                       ! Dry-Bulb Temperature Range Modifier Schedule Name
  ASHRAETau,                              ! Solar Model Indicator
  ,                                       ! Beam Solar Day Schedule Name
  ,                                       ! Diffuse Solar Day Schedule Name
  0.4,                                    ! ASHRAE Taub {dimensionless}
  2.143;                                  ! ASHRAE Taud {dimensionless}

OS:ComponentData,
  {b6f3236c-87ca-4208-abc4-36ba7dd5b2b7}, ! Handle
  Component Data 1,                       ! Name
  {b7fcee2b-d9f8-4910-8f2a-d60761ee28c1}, ! UUID
  {b01b20ce-103d-49a5-89c9-7f041800361c}, ! Version UUID
  1366306724,                             ! Creation Timestamp
  1366306724,                             ! Version Timestamp
  {ae4beab2-d407-4df1-b04c-a144b6e91d77}; ! Name of Object 1

