
OS:Version,
  {e032ac02-4c1f-4c98-b98c-940610d5a238}, ! Handle
  0.9.3;                                  ! Version Identifier

OS:SizingPeriod:DesignDay,
  {38fad36b-159d-4ff7-bde0-cd0be1e9ff58}, ! Handle
  Vichy Rolla Natl Arpt Ann Clg 2% Condns Enth=>MDB, ! Name
  29.9,                                   ! Maximum Dry-Bulb Temperature {C}
  11.1,                                   ! Daily Dry-Bulb Temperature Range {deltaC}
  75300,                                  ! Humidity Indicating Conditions at Maximum Dry-Bulb {BasedOnField A3}
  97353,                                  ! Barometric Pressure {Pa}
  4.1,                                    ! Wind Speed {m/s}
  230,                                    ! Wind Direction {deg}
  0,                                      ! Sky Clearness
  0,                                      ! Rain Indicator
  0,                                      ! Snow Indicator
  21,                                     ! Day of Month
  7,                                      ! Month
  SummerDesignDay,                        ! Day Type
  0,                                      ! Daylight Saving Time Indicator
  Enthalpy,                               ! Humidity Indicating Type
  ,                                       ! Humidity Indicating Day Schedule Name
  DefaultMultipliers,                     ! Dry-Bulb Temperature Range Modifier Type
  ,                                       ! Dry-Bulb Temperature Range Modifier Schedule Name
  ASHRAETau,                              ! Solar Model Indicator
  ,                                       ! Beam Solar Day Schedule Name
  ,                                       ! Diffuse Solar Day Schedule Name
  0.446,                                  ! ASHRAE Taub {dimensionless}
  2.105;                                  ! ASHRAE Taud {dimensionless}

OS:ComponentData,
  {81e262f8-d745-4903-b83e-07163cf255b1}, ! Handle
  Component Data 1,                       ! Name
  {f626702d-e89d-48e0-af2e-1516fd991cb2}, ! UUID
  {af3ffa17-b93f-4211-acc8-a933bc229980}, ! Version UUID
  1366308552,                             ! Creation Timestamp
  1366308552,                             ! Version Timestamp
  {38fad36b-159d-4ff7-bde0-cd0be1e9ff58}; ! Name of Object 1

