
OS:Version,
  {ab86b7f9-a021-42ff-94e3-03a05d26e967}, ! Handle
  0.9.3;                                  ! Version Identifier

OS:SizingPeriod:DesignDay,
  {3e465719-5bb9-45a0-99bc-9cb4778d8d6a}, ! Handle
  Modesto City County Ap Ann Clg .4% Condns DB=>MWB, ! Name
  38.4,                                   ! Maximum Dry-Bulb Temperature {C}
  16.7,                                   ! Daily Dry-Bulb Temperature Range {deltaC}
  21.5,                                   ! Humidity Indicating Conditions at Maximum Dry-Bulb {BasedOnField A3}
  100965,                                 ! Barometric Pressure {Pa}
  4.5,                                    ! Wind Speed {m/s}
  320,                                    ! Wind Direction {deg}
  0,                                      ! Sky Clearness
  0,                                      ! Rain Indicator
  0,                                      ! Snow Indicator
  21,                                     ! Day of Month
  7,                                      ! Month
  SummerDesignDay,                        ! Day Type
  0,                                      ! Daylight Saving Time Indicator
  Wetbulb,                                ! Humidity Indicating Type
  ,                                       ! Humidity Indicating Day Schedule Name
  DefaultMultipliers,                     ! Dry-Bulb Temperature Range Modifier Type
  ,                                       ! Dry-Bulb Temperature Range Modifier Schedule Name
  ASHRAETau,                              ! Solar Model Indicator
  ,                                       ! Beam Solar Day Schedule Name
  ,                                       ! Diffuse Solar Day Schedule Name
  0.392,                                  ! ASHRAE Taub {dimensionless}
  2.306;                                  ! ASHRAE Taud {dimensionless}

OS:ComponentData,
  {04a9abd3-5037-48f2-b9a6-5e5a2f29f9d8}, ! Handle
  Component Data 1,                       ! Name
  {8aca85dd-8b67-4327-b7f1-090a0812562a}, ! UUID
  {383e60e3-8177-4945-9ef6-4a0dbfa85ecc}, ! Version UUID
  1366306490,                             ! Creation Timestamp
  1366306490,                             ! Version Timestamp
  {3e465719-5bb9-45a0-99bc-9cb4778d8d6a}; ! Name of Object 1

