
OS:Version,
  {a28d5815-bf41-4da5-9270-b1cfcce42d39}, ! Handle
  0.9.3;                                  ! Version Identifier

OS:SizingPeriod:DesignDay,
  {6cfedc64-0f0e-4be5-a247-d9f8764c4c32}, ! Handle
  Monterey Naf Ann Htg Wind 99.6% Condns WS=>MCDB, ! Name
  13.2,                                   ! Maximum Dry-Bulb Temperature {C}
  0,                                      ! Daily Dry-Bulb Temperature Range {deltaC}
  13.2,                                   ! Humidity Indicating Conditions at Maximum Dry-Bulb {BasedOnField A3}
  100726,                                 ! Barometric Pressure {Pa}
  8.3,                                    ! Wind Speed {m/s}
  120,                                    ! Wind Direction {deg}
  0,                                      ! Sky Clearness
  0,                                      ! Rain Indicator
  0,                                      ! Snow Indicator
  21,                                     ! Day of Month
  1,                                      ! Month
  WinterDesignDay,                        ! Day Type
  0,                                      ! Daylight Saving Time Indicator
  Wetbulb,                                ! Humidity Indicating Type
  ,                                       ! Humidity Indicating Day Schedule Name
  DefaultMultipliers,                     ! Dry-Bulb Temperature Range Modifier Type
  ,                                       ! Dry-Bulb Temperature Range Modifier Schedule Name
  ASHRAEClearSky;                         ! Solar Model Indicator

OS:ComponentData,
  {7d17f2e3-f7a9-4c57-b15e-e874433d043a}, ! Handle
  Component Data 1,                       ! Name
  {e4b52810-5424-4435-8449-70253fb948cd}, ! UUID
  {190d8ad1-b95c-4a3a-9f81-9bcc59fbd10d}, ! Version UUID
  1366306498,                             ! Creation Timestamp
  1366306498,                             ! Version Timestamp
  {6cfedc64-0f0e-4be5-a247-d9f8764c4c32}; ! Name of Object 1

