
OS:Version,
  {18234436-e28d-4c2f-89be-782563ac7a6a}, ! Handle
  0.9.3;                                  ! Version Identifier

OS:SizingPeriod:DesignDay,
  {7045351c-b796-4194-9b0e-cd91e8670e13}, ! Handle
  POCATELLO Ann Clg 1% Condns DB=>MWB,    ! Name
  32.9,                                   ! Maximum Dry-Bulb Temperature {C}
  18.7,                                   ! Daily Dry-Bulb Temperature Range {deltaC}
  16.2,                                   ! Humidity Indicating Conditions at Maximum Dry-Bulb {BasedOnField A3}
  85966,                                  ! Barometric Pressure {Pa}
  4.8,                                    ! Wind Speed {m/s}
  240,                                    ! Wind Direction {deg}
  0,                                      ! Sky Clearness
  0,                                      ! Rain Indicator
  0,                                      ! Snow Indicator
  21,                                     ! Day of Month
  7,                                      ! Month
  SummerDesignDay,                        ! Day Type
  0,                                      ! Daylight Saving Time Indicator
  Wetbulb,                                ! Humidity Indicating Type
  ,                                       ! Humidity Indicating Day Schedule Name
  DefaultMultipliers,                     ! Dry-Bulb Temperature Range Modifier Type
  ,                                       ! Dry-Bulb Temperature Range Modifier Schedule Name
  ASHRAETau,                              ! Solar Model Indicator
  ,                                       ! Beam Solar Day Schedule Name
  ,                                       ! Diffuse Solar Day Schedule Name
  0.416,                                  ! ASHRAE Taub {dimensionless}
  2.003;                                  ! ASHRAE Taud {dimensionless}

OS:ComponentData,
  {9d433508-b877-4925-a9d3-8b329ed24d23}, ! Handle
  Component Data 1,                       ! Name
  {c26e7ead-7c1f-49d4-9857-56b60032376c}, ! UUID
  {61dd297a-e7ed-413e-8a89-d7281f4a5f0c}, ! Version UUID
  1366307299,                             ! Creation Timestamp
  1366307299,                             ! Version Timestamp
  {7045351c-b796-4194-9b0e-cd91e8670e13}; ! Name of Object 1

