
OS:Version,
  {da6ba05e-0ba4-4c55-8890-d384990eba6d}, ! Handle
  0.9.3;                                  ! Version Identifier

OS:SizingPeriod:DesignDay,
  {cc02e50c-d6df-4f53-86cb-d6ab9957c1b8}, ! Handle
  Stockton Metropolitan Arpt Ann Clg 1% Condns DB=>MWB, ! Name
  36.6,                                   ! Maximum Dry-Bulb Temperature {C}
  17.5,                                   ! Daily Dry-Bulb Temperature Range {deltaC}
  20.7,                                   ! Humidity Indicating Conditions at Maximum Dry-Bulb {BasedOnField A3}
  101241,                                 ! Barometric Pressure {Pa}
  4.5,                                    ! Wind Speed {m/s}
  310,                                    ! Wind Direction {deg}
  0,                                      ! Sky Clearness
  0,                                      ! Rain Indicator
  0,                                      ! Snow Indicator
  21,                                     ! Day of Month
  7,                                      ! Month
  SummerDesignDay,                        ! Day Type
  0,                                      ! Daylight Saving Time Indicator
  Wetbulb,                                ! Humidity Indicating Type
  ,                                       ! Humidity Indicating Day Schedule Name
  DefaultMultipliers,                     ! Dry-Bulb Temperature Range Modifier Type
  ,                                       ! Dry-Bulb Temperature Range Modifier Schedule Name
  ASHRAETau,                              ! Solar Model Indicator
  ,                                       ! Beam Solar Day Schedule Name
  ,                                       ! Diffuse Solar Day Schedule Name
  0.391,                                  ! ASHRAE Taub {dimensionless}
  2.312;                                  ! ASHRAE Taud {dimensionless}

OS:ComponentData,
  {84ca7dcc-b8b2-4347-86ae-77ef0c8ff837}, ! Handle
  Component Data 1,                       ! Name
  {749e59ce-68f8-4940-9753-b9711bc65f41}, ! UUID
  {086e125b-e3c7-4f1d-a5ee-972b6d725fe6}, ! Version UUID
  1366306622,                             ! Creation Timestamp
  1366306622,                             ! Version Timestamp
  {cc02e50c-d6df-4f53-86cb-d6ab9957c1b8}; ! Name of Object 1

