
OS:Version,
  {3e78a915-5fdc-420d-a025-d05f8369c42a}, ! Handle
  0.9.3;                                  ! Version Identifier

OS:SizingPeriod:DesignDay,
  {9c5dc93c-eb25-472d-a562-e689de9669b8}, ! Handle
  Nellis Afb Ann Clg 1% Condns Enth=>MDB, ! Name
  35.2,                                   ! Maximum Dry-Bulb Temperature {C}
  14.5,                                   ! Daily Dry-Bulb Temperature Range {deltaC}
  66200,                                  ! Humidity Indicating Conditions at Maximum Dry-Bulb {BasedOnField A3}
  94628,                                  ! Barometric Pressure {Pa}
  4.6,                                    ! Wind Speed {m/s}
  220,                                    ! Wind Direction {deg}
  0,                                      ! Sky Clearness
  0,                                      ! Rain Indicator
  0,                                      ! Snow Indicator
  21,                                     ! Day of Month
  7,                                      ! Month
  SummerDesignDay,                        ! Day Type
  0,                                      ! Daylight Saving Time Indicator
  Enthalpy,                               ! Humidity Indicating Type
  ,                                       ! Humidity Indicating Day Schedule Name
  DefaultMultipliers,                     ! Dry-Bulb Temperature Range Modifier Type
  ,                                       ! Dry-Bulb Temperature Range Modifier Schedule Name
  ASHRAETau,                              ! Solar Model Indicator
  ,                                       ! Beam Solar Day Schedule Name
  ,                                       ! Diffuse Solar Day Schedule Name
  0.557,                                  ! ASHRAE Taub {dimensionless}
  1.66;                                   ! ASHRAE Taud {dimensionless}

OS:ComponentData,
  {02b0c4de-5ad7-40e0-b7ee-6879e8436818}, ! Handle
  Component Data 1,                       ! Name
  {4812d799-ec88-4c0e-aee9-319d75a022dd}, ! UUID
  {ae060003-7d69-461a-81a4-495727d88317}, ! Version UUID
  1366309528,                             ! Creation Timestamp
  1366309528,                             ! Version Timestamp
  {9c5dc93c-eb25-472d-a562-e689de9669b8}; ! Name of Object 1

