
OS:Version,
  {cbb02c73-8653-4a5a-b5e6-6ce485d0972c}, ! Handle
  0.9.3;                                  ! Version Identifier

OS:SizingPeriod:DesignDay,
  {4ead9bb3-e983-42b2-9bd6-38ec334f1702}, ! Handle
  Nome Municipal Arpt Ann Clg 1% Condns DB=>MWB, ! Name
  18.3,                                   ! Maximum Dry-Bulb Temperature {C}
  5.9,                                    ! Daily Dry-Bulb Temperature Range {deltaC}
  13,                                     ! Humidity Indicating Conditions at Maximum Dry-Bulb {BasedOnField A3}
  101277,                                 ! Barometric Pressure {Pa}
  4.8,                                    ! Wind Speed {m/s}
  260,                                    ! Wind Direction {deg}
  0,                                      ! Sky Clearness
  0,                                      ! Rain Indicator
  0,                                      ! Snow Indicator
  21,                                     ! Day of Month
  7,                                      ! Month
  SummerDesignDay,                        ! Day Type
  0,                                      ! Daylight Saving Time Indicator
  Wetbulb,                                ! Humidity Indicating Type
  ,                                       ! Humidity Indicating Day Schedule Name
  DefaultMultipliers,                     ! Dry-Bulb Temperature Range Modifier Type
  ,                                       ! Dry-Bulb Temperature Range Modifier Schedule Name
  ASHRAETau,                              ! Solar Model Indicator
  ,                                       ! Beam Solar Day Schedule Name
  ,                                       ! Diffuse Solar Day Schedule Name
  0.408,                                  ! ASHRAE Taub {dimensionless}
  2.08;                                   ! ASHRAE Taud {dimensionless}

OS:ComponentData,
  {d6c846c0-d3f7-4664-9f2b-d9d9fae22f3a}, ! Handle
  Component Data 1,                       ! Name
  {1cf471f1-bfa6-4db6-9deb-ce1c2dab6f67}, ! UUID
  {57c03adc-bf8e-417f-aa5e-b8d63ba293d7}, ! Version UUID
  1366305463,                             ! Creation Timestamp
  1366305463,                             ! Version Timestamp
  {4ead9bb3-e983-42b2-9bd6-38ec334f1702}; ! Name of Object 1

