
OS:Version,
  {94894123-5873-4742-997e-a17597449e4b}, ! Handle
  0.9.3;                                  ! Version Identifier

OS:SizingPeriod:DesignDay,
  {89398c8c-edce-4dad-908a-4423b353e165}, ! Handle
  Norfolk Karl Stefan Mem Arpt Ann Clg 2% Condns DP=>MDB, ! Name
  27.2,                                   ! Maximum Dry-Bulb Temperature {C}
  11.9,                                   ! Daily Dry-Bulb Temperature Range {deltaC}
  21.4,                                   ! Humidity Indicating Conditions at Maximum Dry-Bulb {BasedOnField A3}
  95782,                                  ! Barometric Pressure {Pa}
  6.5,                                    ! Wind Speed {m/s}
  190,                                    ! Wind Direction {deg}
  0,                                      ! Sky Clearness
  0,                                      ! Rain Indicator
  0,                                      ! Snow Indicator
  21,                                     ! Day of Month
  7,                                      ! Month
  SummerDesignDay,                        ! Day Type
  0,                                      ! Daylight Saving Time Indicator
  Dewpoint,                               ! Humidity Indicating Type
  ,                                       ! Humidity Indicating Day Schedule Name
  DefaultMultipliers,                     ! Dry-Bulb Temperature Range Modifier Type
  ,                                       ! Dry-Bulb Temperature Range Modifier Schedule Name
  ASHRAETau,                              ! Solar Model Indicator
  ,                                       ! Beam Solar Day Schedule Name
  ,                                       ! Diffuse Solar Day Schedule Name
  0.402,                                  ! ASHRAE Taub {dimensionless}
  2.247;                                  ! ASHRAE Taud {dimensionless}

OS:ComponentData,
  {79a6ccb7-0547-440f-8055-4fa31cce540a}, ! Handle
  Component Data 1,                       ! Name
  {90595e35-56cd-49c4-8903-d2550e65e001}, ! UUID
  {ea000c21-00a8-41d0-86e7-594aaf0a53e6}, ! Version UUID
  1366309150,                             ! Creation Timestamp
  1366309150,                             ! Version Timestamp
  {89398c8c-edce-4dad-908a-4423b353e165}; ! Name of Object 1

