
OS:Version,
  {90586f5d-83a6-4fc6-95b5-0516bd96b42c}, ! Handle
  0.9.3;                                  ! Version Identifier

OS:SizingPeriod:DesignDay,
  {0960d1c0-e6c6-4ccc-9818-3bb596a1d3a4}, ! Handle
  Shreveport Regional Arpt Ann Htg Wind 99.6% Condns WS=>MCDB, ! Name
  11,                                     ! Maximum Dry-Bulb Temperature {C}
  0,                                      ! Daily Dry-Bulb Temperature Range {deltaC}
  11,                                     ! Humidity Indicating Conditions at Maximum Dry-Bulb {BasedOnField A3}
  100403,                                 ! Barometric Pressure {Pa}
  10.8,                                   ! Wind Speed {m/s}
  350,                                    ! Wind Direction {deg}
  0,                                      ! Sky Clearness
  0,                                      ! Rain Indicator
  0,                                      ! Snow Indicator
  21,                                     ! Day of Month
  1,                                      ! Month
  WinterDesignDay,                        ! Day Type
  0,                                      ! Daylight Saving Time Indicator
  Wetbulb,                                ! Humidity Indicating Type
  ,                                       ! Humidity Indicating Day Schedule Name
  DefaultMultipliers,                     ! Dry-Bulb Temperature Range Modifier Type
  ,                                       ! Dry-Bulb Temperature Range Modifier Schedule Name
  ASHRAEClearSky;                         ! Solar Model Indicator

OS:ComponentData,
  {c19bc243-0482-4b12-832f-8ae8d25e78b4}, ! Handle
  Component Data 1,                       ! Name
  {dce43654-eeca-4f29-a490-5d9a2e2195da}, ! UUID
  {08fea10d-f5cc-4311-b693-dd92c2bf2a2e}, ! Version UUID
  1366307773,                             ! Creation Timestamp
  1366307773,                             ! Version Timestamp
  {0960d1c0-e6c6-4ccc-9818-3bb596a1d3a4}; ! Name of Object 1

