
OS:Version,
  {d32f3af3-14f8-41e1-8f09-e4cad442f621}, ! Handle
  0.9.3;                                  ! Version Identifier

OS:SizingPeriod:DesignDay,
  {63f9949e-bcb9-4445-947a-a1fa8fe309fb}, ! Handle
  St Clair County Int Ann Htg 99% Condns DB, ! Name
  -14.8,                                  ! Maximum Dry-Bulb Temperature {C}
  0,                                      ! Daily Dry-Bulb Temperature Range {deltaC}
  -14.8,                                  ! Humidity Indicating Conditions at Maximum Dry-Bulb {BasedOnField A3}
  98969,                                  ! Barometric Pressure {Pa}
  1.8,                                    ! Wind Speed {m/s}
  290,                                    ! Wind Direction {deg}
  0,                                      ! Sky Clearness
  0,                                      ! Rain Indicator
  0,                                      ! Snow Indicator
  21,                                     ! Day of Month
  1,                                      ! Month
  WinterDesignDay,                        ! Day Type
  0,                                      ! Daylight Saving Time Indicator
  Wetbulb,                                ! Humidity Indicating Type
  ,                                       ! Humidity Indicating Day Schedule Name
  DefaultMultipliers,                     ! Dry-Bulb Temperature Range Modifier Type
  ,                                       ! Dry-Bulb Temperature Range Modifier Schedule Name
  ASHRAEClearSky;                         ! Solar Model Indicator

OS:ComponentData,
  {ac384eaa-4102-4b60-857e-723178547ae4}, ! Handle
  Component Data 1,                       ! Name
  {ebcba026-0601-40af-8678-92a32dd35497}, ! UUID
  {4436b890-31b5-4b24-86de-2451fd2898a9}, ! Version UUID
  1366308115,                             ! Creation Timestamp
  1366308115,                             ! Version Timestamp
  {63f9949e-bcb9-4445-947a-a1fa8fe309fb}; ! Name of Object 1

