
OS:Version,
  {40a2d0ab-30d0-4771-a60f-949f74885016}, ! Handle
  0.9.3;                                  ! Version Identifier

OS:SizingPeriod:DesignDay,
  {0d16ad53-57d0-4e12-816a-33da52619aa7}, ! Handle
  Philadelphia/Willow Gr Ann Clg 2% Condns DB=>MWB, ! Name
  31.1,                                   ! Maximum Dry-Bulb Temperature {C}
  9.4,                                    ! Daily Dry-Bulb Temperature Range {deltaC}
  22.8,                                   ! Humidity Indicating Conditions at Maximum Dry-Bulb {BasedOnField A3}
  100011,                                 ! Barometric Pressure {Pa}
  5,                                      ! Wind Speed {m/s}
  240,                                    ! Wind Direction {deg}
  0,                                      ! Sky Clearness
  0,                                      ! Rain Indicator
  0,                                      ! Snow Indicator
  21,                                     ! Day of Month
  7,                                      ! Month
  SummerDesignDay,                        ! Day Type
  0,                                      ! Daylight Saving Time Indicator
  Wetbulb,                                ! Humidity Indicating Type
  ,                                       ! Humidity Indicating Day Schedule Name
  DefaultMultipliers,                     ! Dry-Bulb Temperature Range Modifier Type
  ,                                       ! Dry-Bulb Temperature Range Modifier Schedule Name
  ASHRAETau,                              ! Solar Model Indicator
  ,                                       ! Beam Solar Day Schedule Name
  ,                                       ! Diffuse Solar Day Schedule Name
  0.55,                                   ! ASHRAE Taub {dimensionless}
  1.776;                                  ! ASHRAE Taud {dimensionless}

OS:ComponentData,
  {d7d72eab-a794-4bf3-bff7-05b5e69f3a58}, ! Handle
  Component Data 1,                       ! Name
  {82ff364d-3922-4d05-8a7e-1635185e5312}, ! UUID
  {7ccbe8fc-e70a-4864-93f9-f7af662a165c}, ! Version UUID
  1366310219,                             ! Creation Timestamp
  1366310219,                             ! Version Timestamp
  {0d16ad53-57d0-4e12-816a-33da52619aa7}; ! Name of Object 1

