
OS:Version,
  {39cbc72f-39f4-4870-91a9-4158ecd5701c}, ! Handle
  0.9.3;                                  ! Version Identifier

OS:SizingPeriod:DesignDay,
  {de4f0848-04f5-46f2-88e2-af579e0fc1b7}, ! Handle
  Patterson Memorial Ann Clg 2% Condns DP=>MDB, ! Name
  28.9,                                   ! Maximum Dry-Bulb Temperature {C}
  8.9,                                    ! Daily Dry-Bulb Temperature Range {deltaC}
  24.8,                                   ! Humidity Indicating Conditions at Maximum Dry-Bulb {BasedOnField A3}
  101289,                                 ! Barometric Pressure {Pa}
  3.4,                                    ! Wind Speed {m/s}
  350,                                    ! Wind Direction {deg}
  0,                                      ! Sky Clearness
  0,                                      ! Rain Indicator
  0,                                      ! Snow Indicator
  21,                                     ! Day of Month
  8,                                      ! Month
  SummerDesignDay,                        ! Day Type
  0,                                      ! Daylight Saving Time Indicator
  Dewpoint,                               ! Humidity Indicating Type
  ,                                       ! Humidity Indicating Day Schedule Name
  DefaultMultipliers,                     ! Dry-Bulb Temperature Range Modifier Type
  ,                                       ! Dry-Bulb Temperature Range Modifier Schedule Name
  ASHRAETau,                              ! Solar Model Indicator
  ,                                       ! Beam Solar Day Schedule Name
  ,                                       ! Diffuse Solar Day Schedule Name
  0.54,                                   ! ASHRAE Taub {dimensionless}
  1.85;                                   ! ASHRAE Taud {dimensionless}

OS:ComponentData,
  {5e57e79b-0cf7-4749-878a-3464a73c44a8}, ! Handle
  Component Data 1,                       ! Name
  {b0701dfc-39c5-43e5-aec9-e566d002141c}, ! UUID
  {fb8eb299-b133-4c4c-ad10-e32529020d95}, ! Version UUID
  1366307759,                             ! Creation Timestamp
  1366307759,                             ! Version Timestamp
  {de4f0848-04f5-46f2-88e2-af579e0fc1b7}; ! Name of Object 1

