
OS:Version,
  {0625bb6d-5569-4200-a80d-f4ba5c875dce}, ! Handle
  0.9.3;                                  ! Version Identifier

OS:SizingPeriod:DesignDay,
  {7792c91e-27a1-4d6e-96d2-5b4b1408b94b}, ! Handle
  Morris Muni  Awos Ann Hum_n 99.6% Condns DP=>MCDB, ! Name
  -28.1,                                  ! Maximum Dry-Bulb Temperature {C}
  0,                                      ! Daily Dry-Bulb Temperature Range {deltaC}
  -32.3,                                  ! Humidity Indicating Conditions at Maximum Dry-Bulb {BasedOnField A3}
  97260,                                  ! Barometric Pressure {Pa}
  3.7,                                    ! Wind Speed {m/s}
  310,                                    ! Wind Direction {deg}
  0,                                      ! Sky Clearness
  0,                                      ! Rain Indicator
  0,                                      ! Snow Indicator
  21,                                     ! Day of Month
  1,                                      ! Month
  WinterDesignDay,                        ! Day Type
  0,                                      ! Daylight Saving Time Indicator
  Dewpoint,                               ! Humidity Indicating Type
  ,                                       ! Humidity Indicating Day Schedule Name
  DefaultMultipliers,                     ! Dry-Bulb Temperature Range Modifier Type
  ,                                       ! Dry-Bulb Temperature Range Modifier Schedule Name
  ASHRAEClearSky;                         ! Solar Model Indicator

OS:ComponentData,
  {bf7f224e-dcbc-4340-a606-6480b22bb8ad}, ! Handle
  Component Data 1,                       ! Name
  {772de2fb-c479-43a5-96cb-a271e369e3d3}, ! UUID
  {ce727d46-f9c1-46ab-8963-aa7009465c45}, ! Version UUID
  1366308335,                             ! Creation Timestamp
  1366308335,                             ! Version Timestamp
  {7792c91e-27a1-4d6e-96d2-5b4b1408b94b}; ! Name of Object 1

