
OS:Version,
  {9e2bc16d-4701-4413-848a-1ef1241c3f31}, ! Handle
  0.9.3;                                  ! Version Identifier

OS:SizingPeriod:DesignDay,
  {e307ec2f-1d5d-468d-91af-a3d784931599}, ! Handle
  Republic Ann Htg Wind 99% Condns WS=>MCDB, ! Name
  1.7,                                    ! Maximum Dry-Bulb Temperature {C}
  0,                                      ! Daily Dry-Bulb Temperature Range {deltaC}
  1.7,                                    ! Humidity Indicating Conditions at Maximum Dry-Bulb {BasedOnField A3}
  101013,                                 ! Barometric Pressure {Pa}
  11.2,                                   ! Wind Speed {m/s}
  340,                                    ! Wind Direction {deg}
  0,                                      ! Sky Clearness
  0,                                      ! Rain Indicator
  0,                                      ! Snow Indicator
  21,                                     ! Day of Month
  1,                                      ! Month
  WinterDesignDay,                        ! Day Type
  0,                                      ! Daylight Saving Time Indicator
  Wetbulb,                                ! Humidity Indicating Type
  ,                                       ! Humidity Indicating Day Schedule Name
  DefaultMultipliers,                     ! Dry-Bulb Temperature Range Modifier Type
  ,                                       ! Dry-Bulb Temperature Range Modifier Schedule Name
  ASHRAEClearSky;                         ! Solar Model Indicator

OS:ComponentData,
  {2f8c2b1e-9b8d-4beb-acb3-b77ac516a596}, ! Handle
  Component Data 1,                       ! Name
  {edb91e1d-dcc9-490d-be82-9019652c8fde}, ! UUID
  {98c07278-1a77-4b8f-b051-5891998023a0}, ! Version UUID
  1366309708,                             ! Creation Timestamp
  1366309708,                             ! Version Timestamp
  {e307ec2f-1d5d-468d-91af-a3d784931599}; ! Name of Object 1

