
OS:Version,
  {9fa04d84-b136-479e-87eb-6574eeb6f839}, ! Handle
  0.9.3;                                  ! Version Identifier

OS:SizingPeriod:DesignDay,
  {6bb63b3c-1525-4caf-926c-60977c86b50e}, ! Handle
  Prescott Love Field Ann Hum_n 99.6% Condns DP=>MCDB, ! Name
  2.7,                                    ! Maximum Dry-Bulb Temperature {C}
  0,                                      ! Daily Dry-Bulb Temperature Range {deltaC}
  -18.8,                                  ! Humidity Indicating Conditions at Maximum Dry-Bulb {BasedOnField A3}
  84173,                                  ! Barometric Pressure {Pa}
  2.3,                                    ! Wind Speed {m/s}
  200,                                    ! Wind Direction {deg}
  0,                                      ! Sky Clearness
  0,                                      ! Rain Indicator
  0,                                      ! Snow Indicator
  21,                                     ! Day of Month
  12,                                     ! Month
  WinterDesignDay,                        ! Day Type
  0,                                      ! Daylight Saving Time Indicator
  Dewpoint,                               ! Humidity Indicating Type
  ,                                       ! Humidity Indicating Day Schedule Name
  DefaultMultipliers,                     ! Dry-Bulb Temperature Range Modifier Type
  ,                                       ! Dry-Bulb Temperature Range Modifier Schedule Name
  ASHRAEClearSky;                         ! Solar Model Indicator

OS:ComponentData,
  {ad9c8130-4000-459e-9679-a301abd8d0a1}, ! Handle
  Component Data 1,                       ! Name
  {4cfd5c4e-778e-4d90-8987-ffee0f218683}, ! UUID
  {1febd8e1-b353-4584-a3b4-c02f4cdd9e8b}, ! Version UUID
  1366306304,                             ! Creation Timestamp
  1366306304,                             ! Version Timestamp
  {6bb63b3c-1525-4caf-926c-60977c86b50e}; ! Name of Object 1

