
OS:Version,
  {d9027335-ace0-41e4-a889-7e89bba656f4}, ! Handle
  0.9.3;                                  ! Version Identifier

OS:SizingPeriod:DesignDay,
  {897b8bc5-7059-4e7d-baeb-23bf9879ef89}, ! Handle
  Tallahassee Regional Ap  Isis Ann Clg 1% Condns DB=>MWB, ! Name
  34.2,                                   ! Maximum Dry-Bulb Temperature {C}
  10.6,                                   ! Daily Dry-Bulb Temperature Range {deltaC}
  24.5,                                   ! Humidity Indicating Conditions at Maximum Dry-Bulb {BasedOnField A3}
  101073,                                 ! Barometric Pressure {Pa}
  3.4,                                    ! Wind Speed {m/s}
  10,                                     ! Wind Direction {deg}
  0,                                      ! Sky Clearness
  0,                                      ! Rain Indicator
  0,                                      ! Snow Indicator
  21,                                     ! Day of Month
  7,                                      ! Month
  SummerDesignDay,                        ! Day Type
  0,                                      ! Daylight Saving Time Indicator
  Wetbulb,                                ! Humidity Indicating Type
  ,                                       ! Humidity Indicating Day Schedule Name
  DefaultMultipliers,                     ! Dry-Bulb Temperature Range Modifier Type
  ,                                       ! Dry-Bulb Temperature Range Modifier Schedule Name
  ASHRAETau,                              ! Solar Model Indicator
  ,                                       ! Beam Solar Day Schedule Name
  ,                                       ! Diffuse Solar Day Schedule Name
  0.537,                                  ! ASHRAE Taub {dimensionless}
  1.879;                                  ! ASHRAE Taud {dimensionless}

OS:ComponentData,
  {066d3bde-f6a8-4244-bf45-690eec187a20}, ! Handle
  Component Data 1,                       ! Name
  {a0ebbf50-84ac-441e-9c4a-e88c2687003d}, ! UUID
  {a9a87632-0601-491f-accb-62e1d5e8c4c5}, ! Version UUID
  1366306927,                             ! Creation Timestamp
  1366306927,                             ! Version Timestamp
  {897b8bc5-7059-4e7d-baeb-23bf9879ef89}; ! Name of Object 1

