
OS:Version,
  {11d5201f-bd4c-4b42-a9aa-a48efbb6af33}, ! Handle
  0.9.3;                                  ! Version Identifier

OS:SizingPeriod:DesignDay,
  {e5caf4b1-fad9-4852-9da3-7fa67c3fce03}, ! Handle
  ROCHESTER Ann Clg .4% Condns WB=>MDB,   ! Name
  29.2,                                   ! Maximum Dry-Bulb Temperature {C}
  10.7,                                   ! Daily Dry-Bulb Temperature Range {deltaC}
  24.2,                                   ! Humidity Indicating Conditions at Maximum Dry-Bulb {BasedOnField A3}
  99311,                                  ! Barometric Pressure {Pa}
  5.2,                                    ! Wind Speed {m/s}
  240,                                    ! Wind Direction {deg}
  0,                                      ! Sky Clearness
  0,                                      ! Rain Indicator
  0,                                      ! Snow Indicator
  21,                                     ! Day of Month
  7,                                      ! Month
  SummerDesignDay,                        ! Day Type
  0,                                      ! Daylight Saving Time Indicator
  Wetbulb,                                ! Humidity Indicating Type
  ,                                       ! Humidity Indicating Day Schedule Name
  DefaultMultipliers,                     ! Dry-Bulb Temperature Range Modifier Type
  ,                                       ! Dry-Bulb Temperature Range Modifier Schedule Name
  ASHRAETau,                              ! Solar Model Indicator
  ,                                       ! Beam Solar Day Schedule Name
  ,                                       ! Diffuse Solar Day Schedule Name
  0.463,                                  ! ASHRAE Taub {dimensionless}
  2.001;                                  ! ASHRAE Taud {dimensionless}

OS:ComponentData,
  {405dd759-a0b9-498b-8543-b78838028e4e}, ! Handle
  Component Data 1,                       ! Name
  {3781a49e-2522-4af8-94ee-a837b2d5482e}, ! UUID
  {5eb611bd-95c9-4b9f-b093-6d77dc481c19}, ! Version UUID
  1366309723,                             ! Creation Timestamp
  1366309723,                             ! Version Timestamp
  {e5caf4b1-fad9-4852-9da3-7fa67c3fce03}; ! Name of Object 1

