
OS:Version,
  {7001a49e-807a-4ca7-8020-79a8b1b0bf16}, ! Handle
  0.9.3;                                  ! Version Identifier

OS:SizingPeriod:DesignDay,
  {821b0fb0-8cef-4058-b465-767dfe2cefef}, ! Handle
  WINNEMUCCA Ann Clg .4% Condns WB=>MDB,  ! Name
  33.9,                                   ! Maximum Dry-Bulb Temperature {C}
  21.5,                                   ! Daily Dry-Bulb Temperature Range {deltaC}
  18.4,                                   ! Humidity Indicating Conditions at Maximum Dry-Bulb {BasedOnField A3}
  86409,                                  ! Barometric Pressure {Pa}
  4.4,                                    ! Wind Speed {m/s}
  240,                                    ! Wind Direction {deg}
  0,                                      ! Sky Clearness
  0,                                      ! Rain Indicator
  0,                                      ! Snow Indicator
  21,                                     ! Day of Month
  7,                                      ! Month
  SummerDesignDay,                        ! Day Type
  0,                                      ! Daylight Saving Time Indicator
  Wetbulb,                                ! Humidity Indicating Type
  ,                                       ! Humidity Indicating Day Schedule Name
  DefaultMultipliers,                     ! Dry-Bulb Temperature Range Modifier Type
  ,                                       ! Dry-Bulb Temperature Range Modifier Schedule Name
  ASHRAETau,                              ! Solar Model Indicator
  ,                                       ! Beam Solar Day Schedule Name
  ,                                       ! Diffuse Solar Day Schedule Name
  0.441,                                  ! ASHRAE Taub {dimensionless}
  1.893;                                  ! ASHRAE Taud {dimensionless}

OS:ComponentData,
  {43b0bd6a-545d-4da0-9485-8005eb9e90fd}, ! Handle
  Component Data 1,                       ! Name
  {f2713ce8-e9e5-4262-9223-2683c472a2c2}, ! UUID
  {07669499-805e-4b24-b394-44092424ac0a}, ! Version UUID
  1366309560,                             ! Creation Timestamp
  1366309560,                             ! Version Timestamp
  {821b0fb0-8cef-4058-b465-767dfe2cefef}; ! Name of Object 1

