
OS:Version,
  {300a5e07-abcb-4715-b2f1-a22103c93af6}, ! Handle
  0.9.3;                                  ! Version Identifier

OS:SizingPeriod:DesignDay,
  {9c5ab249-e27d-4fba-9431-b6115e6a9358}, ! Handle
  Walla Walla City County Ap Ann Htg 99% Condns DB, ! Name
  -8.8,                                   ! Maximum Dry-Bulb Temperature {C}
  0,                                      ! Daily Dry-Bulb Temperature Range {deltaC}
  -8.8,                                   ! Humidity Indicating Conditions at Maximum Dry-Bulb {BasedOnField A3}
  97132,                                  ! Barometric Pressure {Pa}
  2.3,                                    ! Wind Speed {m/s}
  180,                                    ! Wind Direction {deg}
  0,                                      ! Sky Clearness
  0,                                      ! Rain Indicator
  0,                                      ! Snow Indicator
  21,                                     ! Day of Month
  12,                                     ! Month
  WinterDesignDay,                        ! Day Type
  0,                                      ! Daylight Saving Time Indicator
  Wetbulb,                                ! Humidity Indicating Type
  ,                                       ! Humidity Indicating Day Schedule Name
  DefaultMultipliers,                     ! Dry-Bulb Temperature Range Modifier Type
  ,                                       ! Dry-Bulb Temperature Range Modifier Schedule Name
  ASHRAEClearSky;                         ! Solar Model Indicator

OS:ComponentData,
  {2d89c5ec-9a00-4166-aa23-3050d801b9d3}, ! Handle
  Component Data 1,                       ! Name
  {91bb26b3-240a-4b08-b217-8317af72bb51}, ! UUID
  {314040ab-547e-4bf7-979d-83024f5f0635}, ! Version UUID
  1366311419,                             ! Creation Timestamp
  1366311419,                             ! Version Timestamp
  {9c5ab249-e27d-4fba-9431-b6115e6a9358}; ! Name of Object 1

