
OS:Version,
  {4fdf41cb-69ed-4521-807d-bad477d09ae2}, ! Handle
  0.9.3;                                  ! Version Identifier

OS:SizingPeriod:DesignDay,
  {7d7998bd-1336-4d0b-bede-13181f593796}, ! Handle
  Randolph Afb Ann Clg 1% Condns DB=>MWB, ! Name
  36.3,                                   ! Maximum Dry-Bulb Temperature {C}
  12.5,                                   ! Daily Dry-Bulb Temperature Range {deltaC}
  23.3,                                   ! Humidity Indicating Conditions at Maximum Dry-Bulb {BasedOnField A3}
  98569,                                  ! Barometric Pressure {Pa}
  4.7,                                    ! Wind Speed {m/s}
  160,                                    ! Wind Direction {deg}
  0,                                      ! Sky Clearness
  0,                                      ! Rain Indicator
  0,                                      ! Snow Indicator
  21,                                     ! Day of Month
  8,                                      ! Month
  SummerDesignDay,                        ! Day Type
  0,                                      ! Daylight Saving Time Indicator
  Wetbulb,                                ! Humidity Indicating Type
  ,                                       ! Humidity Indicating Day Schedule Name
  DefaultMultipliers,                     ! Dry-Bulb Temperature Range Modifier Type
  ,                                       ! Dry-Bulb Temperature Range Modifier Schedule Name
  ASHRAETau,                              ! Solar Model Indicator
  ,                                       ! Beam Solar Day Schedule Name
  ,                                       ! Diffuse Solar Day Schedule Name
  0.45,                                   ! ASHRAE Taub {dimensionless}
  2.14;                                   ! ASHRAE Taud {dimensionless}

OS:ComponentData,
  {34b36769-3483-474b-9cf2-e8e12f6391d3}, ! Handle
  Component Data 1,                       ! Name
  {9570e22a-b269-47cc-a67c-da803bc4e5b1}, ! UUID
  {02b7bc16-7613-46dc-b49a-c2e27182c938}, ! Version UUID
  1366310860,                             ! Creation Timestamp
  1366310860,                             ! Version Timestamp
  {7d7998bd-1336-4d0b-bede-13181f593796}; ! Name of Object 1

