
OS:Version,
  {f1d4b69f-f5d7-4374-acbf-addd5c9d6050}, ! Handle
  0.9.3;                                  ! Version Identifier

OS:SizingPeriod:DesignDay,
  {6160a758-f687-4177-9997-c3ab9e4641f0}, ! Handle
  Sterling/Washington Du Ann Htg Wind 99.6% Condns WS=>MCDB, ! Name
  0.8,                                    ! Maximum Dry-Bulb Temperature {C}
  0,                                      ! Daily Dry-Bulb Temperature Range {deltaC}
  0.8,                                    ! Humidity Indicating Conditions at Maximum Dry-Bulb {BasedOnField A3}
  100153,                                 ! Barometric Pressure {Pa}
  11.2,                                   ! Wind Speed {m/s}
  310,                                    ! Wind Direction {deg}
  0,                                      ! Sky Clearness
  0,                                      ! Rain Indicator
  0,                                      ! Snow Indicator
  21,                                     ! Day of Month
  1,                                      ! Month
  WinterDesignDay,                        ! Day Type
  0,                                      ! Daylight Saving Time Indicator
  Wetbulb,                                ! Humidity Indicating Type
  ,                                       ! Humidity Indicating Day Schedule Name
  DefaultMultipliers,                     ! Dry-Bulb Temperature Range Modifier Type
  ,                                       ! Dry-Bulb Temperature Range Modifier Schedule Name
  ASHRAEClearSky;                         ! Solar Model Indicator

