
OS:Version,
  {482efe8f-4005-4ef4-90c6-91cc29b073d7}, ! Handle
  0.9.3;                                  ! Version Identifier

OS:SizingPeriod:DesignDay,
  {0d829fa9-9b1b-4d34-938e-6926792bc8db}, ! Handle
  Sacramento/Mather Fiel Ann Clg 2% Condns DP=>MDB, ! Name
  25.4,                                   ! Maximum Dry-Bulb Temperature {C}
  18.1,                                   ! Daily Dry-Bulb Temperature Range {deltaC}
  15.7,                                   ! Humidity Indicating Conditions at Maximum Dry-Bulb {BasedOnField A3}
  100977,                                 ! Barometric Pressure {Pa}
  3.4,                                    ! Wind Speed {m/s}
  220,                                    ! Wind Direction {deg}
  0,                                      ! Sky Clearness
  0,                                      ! Rain Indicator
  0,                                      ! Snow Indicator
  21,                                     ! Day of Month
  7,                                      ! Month
  SummerDesignDay,                        ! Day Type
  0,                                      ! Daylight Saving Time Indicator
  Dewpoint,                               ! Humidity Indicating Type
  ,                                       ! Humidity Indicating Day Schedule Name
  DefaultMultipliers,                     ! Dry-Bulb Temperature Range Modifier Type
  ,                                       ! Dry-Bulb Temperature Range Modifier Schedule Name
  ASHRAETau,                              ! Solar Model Indicator
  ,                                       ! Beam Solar Day Schedule Name
  ,                                       ! Diffuse Solar Day Schedule Name
  0.382,                                  ! ASHRAE Taub {dimensionless}
  2.325;                                  ! ASHRAE Taud {dimensionless}

OS:ComponentData,
  {e38a705e-bc48-4660-bd48-703c491094e3}, ! Handle
  Component Data 1,                       ! Name
  {19707828-23d2-4b4d-a600-4efc7556ef2b}, ! UUID
  {bda337d5-4c3d-4237-a478-99220d3002be}, ! Version UUID
  1366306561,                             ! Creation Timestamp
  1366306561,                             ! Version Timestamp
  {0d829fa9-9b1b-4d34-938e-6926792bc8db}; ! Name of Object 1

