
OS:Version,
  {eff287b6-e222-4625-86fb-af531ace8fe2}, ! Handle
  0.9.3;                                  ! Version Identifier

OS:SizingPeriod:DesignDay,
  {4cdb60b9-8365-43ec-b950-a096d54d98bb}, ! Handle
  ROANOKE Ann Clg 1% Condns WB=>MDB,      ! Name
  29.6,                                   ! Maximum Dry-Bulb Temperature {C}
  10.6,                                   ! Daily Dry-Bulb Temperature Range {deltaC}
  23.6,                                   ! Humidity Indicating Conditions at Maximum Dry-Bulb {BasedOnField A3}
  97098,                                  ! Barometric Pressure {Pa}
  4,                                      ! Wind Speed {m/s}
  280,                                    ! Wind Direction {deg}
  0,                                      ! Sky Clearness
  0,                                      ! Rain Indicator
  0,                                      ! Snow Indicator
  21,                                     ! Day of Month
  7,                                      ! Month
  SummerDesignDay,                        ! Day Type
  0,                                      ! Daylight Saving Time Indicator
  Wetbulb,                                ! Humidity Indicating Type
  ,                                       ! Humidity Indicating Day Schedule Name
  DefaultMultipliers,                     ! Dry-Bulb Temperature Range Modifier Type
  ,                                       ! Dry-Bulb Temperature Range Modifier Schedule Name
  ASHRAETau,                              ! Solar Model Indicator
  ,                                       ! Beam Solar Day Schedule Name
  ,                                       ! Diffuse Solar Day Schedule Name
  0.529,                                  ! ASHRAE Taub {dimensionless}
  1.818;                                  ! ASHRAE Taud {dimensionless}

OS:ComponentData,
  {936dc187-486d-4bc7-9ab9-11b4d3df23fb}, ! Handle
  Component Data 1,                       ! Name
  {f6908683-42c7-404f-84c3-e9a4b6c1a3a7}, ! UUID
  {7588cb9e-85c1-4c80-aa2f-4726609b7940}, ! Version UUID
  1366311180,                             ! Creation Timestamp
  1366311180,                             ! Version Timestamp
  {4cdb60b9-8365-43ec-b950-a096d54d98bb}; ! Name of Object 1

