
OS:Version,
  {2c8a70c9-b2ed-40d0-9f31-4293de6b90dc}, ! Handle
  0.9.3;                                  ! Version Identifier

OS:SizingPeriod:DesignDay,
  {887d9f70-b96d-4fbb-95fd-915b08a76e00}, ! Handle
  Millville Municipal Ap Ann Clg .4% Condns WB=>MDB, ! Name
  30.6,                                   ! Maximum Dry-Bulb Temperature {C}
  10.4,                                   ! Daily Dry-Bulb Temperature Range {deltaC}
  25.5,                                   ! Humidity Indicating Conditions at Maximum Dry-Bulb {BasedOnField A3}
  101073,                                 ! Barometric Pressure {Pa}
  4.6,                                    ! Wind Speed {m/s}
  270,                                    ! Wind Direction {deg}
  0,                                      ! Sky Clearness
  0,                                      ! Rain Indicator
  0,                                      ! Snow Indicator
  21,                                     ! Day of Month
  7,                                      ! Month
  SummerDesignDay,                        ! Day Type
  0,                                      ! Daylight Saving Time Indicator
  Wetbulb,                                ! Humidity Indicating Type
  ,                                       ! Humidity Indicating Day Schedule Name
  DefaultMultipliers,                     ! Dry-Bulb Temperature Range Modifier Type
  ,                                       ! Dry-Bulb Temperature Range Modifier Schedule Name
  ASHRAETau,                              ! Solar Model Indicator
  ,                                       ! Beam Solar Day Schedule Name
  ,                                       ! Diffuse Solar Day Schedule Name
  0.564,                                  ! ASHRAE Taub {dimensionless}
  1.747;                                  ! ASHRAE Taud {dimensionless}

OS:ComponentData,
  {d9d6e66b-5ec0-410e-8cee-aaa15cdd8532}, ! Handle
  Component Data 1,                       ! Name
  {3cd9a423-a08f-4760-a38a-3c6e7a996abd}, ! UUID
  {0cfaae26-a7cc-4777-9dc1-37a420f868fb}, ! Version UUID
  1366309319,                             ! Creation Timestamp
  1366309319,                             ! Version Timestamp
  {887d9f70-b96d-4fbb-95fd-915b08a76e00}; ! Name of Object 1

