
OS:Version,
  {285d01cb-7931-4b04-bd89-ddd2a52b6eb6}, ! Handle
  0.9.3;                                  ! Version Identifier

OS:SizingPeriod:DesignDay,
  {885e8ebb-fdec-4afc-b653-d50e6b37905b}, ! Handle
  North Platte Ann Clg 2% Condns DB=>MWB, ! Name
  32.1,                                   ! Maximum Dry-Bulb Temperature {C}
  14.5,                                   ! Daily Dry-Bulb Temperature Range {deltaC}
  20.6,                                   ! Humidity Indicating Conditions at Maximum Dry-Bulb {BasedOnField A3}
  91533,                                  ! Barometric Pressure {Pa}
  5.5,                                    ! Wind Speed {m/s}
  180,                                    ! Wind Direction {deg}
  0,                                      ! Sky Clearness
  0,                                      ! Rain Indicator
  0,                                      ! Snow Indicator
  21,                                     ! Day of Month
  7,                                      ! Month
  SummerDesignDay,                        ! Day Type
  0,                                      ! Daylight Saving Time Indicator
  Wetbulb,                                ! Humidity Indicating Type
  ,                                       ! Humidity Indicating Day Schedule Name
  DefaultMultipliers,                     ! Dry-Bulb Temperature Range Modifier Type
  ,                                       ! Dry-Bulb Temperature Range Modifier Schedule Name
  ASHRAETau,                              ! Solar Model Indicator
  ,                                       ! Beam Solar Day Schedule Name
  ,                                       ! Diffuse Solar Day Schedule Name
  0.417,                                  ! ASHRAE Taub {dimensionless}
  2.141;                                  ! ASHRAE Taud {dimensionless}

OS:ComponentData,
  {18f65ed7-cd97-4ead-a297-8ba11610f418}, ! Handle
  Component Data 1,                       ! Name
  {3e309c9c-c6d2-40aa-ae89-1a47965cfd6c}, ! UUID
  {6c603af0-8ac9-4967-8a5a-0d2a025909e1}, ! Version UUID
  1366309161,                             ! Creation Timestamp
  1366309161,                             ! Version Timestamp
  {885e8ebb-fdec-4afc-b653-d50e6b37905b}; ! Name of Object 1

