
OS:Version,
  {2624e782-c9fa-40a1-9de8-a0cd2546b4ef}, ! Handle
  0.9.3;                                  ! Version Identifier

OS:SizingPeriod:DesignDay,
  {bc866a56-1784-48ab-9725-da0bfec422b4}, ! Handle
  MUSKEGON Ann Clg 2% Condns DP=>MDB,     ! Name
  24.8,                                   ! Maximum Dry-Bulb Temperature {C}
  10,                                     ! Daily Dry-Bulb Temperature Range {deltaC}
  21.2,                                   ! Humidity Indicating Conditions at Maximum Dry-Bulb {BasedOnField A3}
  99051,                                  ! Barometric Pressure {Pa}
  5.4,                                    ! Wind Speed {m/s}
  200,                                    ! Wind Direction {deg}
  0,                                      ! Sky Clearness
  0,                                      ! Rain Indicator
  0,                                      ! Snow Indicator
  21,                                     ! Day of Month
  7,                                      ! Month
  SummerDesignDay,                        ! Day Type
  0,                                      ! Daylight Saving Time Indicator
  Dewpoint,                               ! Humidity Indicating Type
  ,                                       ! Humidity Indicating Day Schedule Name
  DefaultMultipliers,                     ! Dry-Bulb Temperature Range Modifier Type
  ,                                       ! Dry-Bulb Temperature Range Modifier Schedule Name
  ASHRAETau,                              ! Solar Model Indicator
  ,                                       ! Beam Solar Day Schedule Name
  ,                                       ! Diffuse Solar Day Schedule Name
  0.436,                                  ! ASHRAE Taub {dimensionless}
  2.131;                                  ! ASHRAE Taud {dimensionless}

OS:ComponentData,
  {50b6500d-93bd-4175-8ceb-a13ca54ac0f4}, ! Handle
  Component Data 1,                       ! Name
  {51599c7d-20e6-4d24-8bf8-dc1cb1065261}, ! UUID
  {d317e21e-d36f-45fc-b5e8-aa8467a47a22}, ! Version UUID
  1366308072,                             ! Creation Timestamp
  1366308072,                             ! Version Timestamp
  {bc866a56-1784-48ab-9725-da0bfec422b4}; ! Name of Object 1

