
OS:Version,
  {450003fa-5d0d-401c-b834-8ab8224d4862}, ! Handle
  0.9.3;                                  ! Version Identifier

OS:SizingPeriod:DesignDay,
  {3ffabbae-910b-47d6-84d9-7680f1c76737}, ! Handle
  PORT_ARTHUR Ann Htg Wind 99.6% Condns WS=>MCDB, ! Name
  13.8,                                   ! Maximum Dry-Bulb Temperature {C}
  0,                                      ! Daily Dry-Bulb Temperature Range {deltaC}
  13.8,                                   ! Humidity Indicating Conditions at Maximum Dry-Bulb {BasedOnField A3}
  101241,                                 ! Barometric Pressure {Pa}
  11.1,                                   ! Wind Speed {m/s}
  0,                                      ! Wind Direction {deg}
  0,                                      ! Sky Clearness
  0,                                      ! Rain Indicator
  0,                                      ! Snow Indicator
  21,                                     ! Day of Month
  1,                                      ! Month
  WinterDesignDay,                        ! Day Type
  0,                                      ! Daylight Saving Time Indicator
  Wetbulb,                                ! Humidity Indicating Type
  ,                                       ! Humidity Indicating Day Schedule Name
  DefaultMultipliers,                     ! Dry-Bulb Temperature Range Modifier Type
  ,                                       ! Dry-Bulb Temperature Range Modifier Schedule Name
  ASHRAEClearSky;                         ! Solar Model Indicator

OS:ComponentData,
  {6b88186f-e13b-456f-8d12-9ce70adf6dd9}, ! Handle
  Component Data 1,                       ! Name
  {0b37b2ce-f822-4f34-a1bb-9475d86ae307}, ! UUID
  {8439d332-292e-411a-94c4-63ae9a666d73}, ! Version UUID
  1366310594,                             ! Creation Timestamp
  1366310594,                             ! Version Timestamp
  {3ffabbae-910b-47d6-84d9-7680f1c76737}; ! Name of Object 1

