
OS:Version,
  {6fdcc93e-0f41-4cfa-9997-254f7db57d93}, ! Handle
  0.9.3;                                  ! Version Identifier

OS:SizingPeriod:DesignDay,
  {1196440a-06c8-472f-b4ae-3346569c07fe}, ! Handle
  Santa Barbara Municipal Ap Ann Clg .4% Condns DP=>MDB, ! Name
  22.6,                                   ! Maximum Dry-Bulb Temperature {C}
  9.1,                                    ! Daily Dry-Bulb Temperature Range {deltaC}
  18.6,                                   ! Humidity Indicating Conditions at Maximum Dry-Bulb {BasedOnField A3}
  101289,                                 ! Barometric Pressure {Pa}
  4.2,                                    ! Wind Speed {m/s}
  250,                                    ! Wind Direction {deg}
  0,                                      ! Sky Clearness
  0,                                      ! Rain Indicator
  0,                                      ! Snow Indicator
  21,                                     ! Day of Month
  8,                                      ! Month
  SummerDesignDay,                        ! Day Type
  0,                                      ! Daylight Saving Time Indicator
  Dewpoint,                               ! Humidity Indicating Type
  ,                                       ! Humidity Indicating Day Schedule Name
  DefaultMultipliers,                     ! Dry-Bulb Temperature Range Modifier Type
  ,                                       ! Dry-Bulb Temperature Range Modifier Schedule Name
  ASHRAETau,                              ! Solar Model Indicator
  ,                                       ! Beam Solar Day Schedule Name
  ,                                       ! Diffuse Solar Day Schedule Name
  0.405,                                  ! ASHRAE Taub {dimensionless}
  2.29;                                   ! ASHRAE Taud {dimensionless}

OS:ComponentData,
  {560df0dc-a944-4892-83b2-f0ff664ee704}, ! Handle
  Component Data 1,                       ! Name
  {df03f8c5-cc45-4e7f-baf0-c7d6cf889867}, ! UUID
  {3af961ec-03e4-4fc2-b0ac-500a12989f5f}, ! Version UUID
  1366306607,                             ! Creation Timestamp
  1366306607,                             ! Version Timestamp
  {1196440a-06c8-472f-b4ae-3346569c07fe}; ! Name of Object 1

