
OS:Version,
  {7d18f44e-2bde-41e1-bda5-134f65a6eaac}, ! Handle
  0.9.3;                                  ! Version Identifier

OS:SizingPeriod:DesignDay,
  {d7f0e580-e58f-474e-b24f-0881639a1aa9}, ! Handle
  St Louis Spirit Of St Louis A Ann Clg 1% Condns DB=>MWB, ! Name
  33.7,                                   ! Maximum Dry-Bulb Temperature {C}
  11.1,                                   ! Daily Dry-Bulb Temperature Range {deltaC}
  24.6,                                   ! Humidity Indicating Conditions at Maximum Dry-Bulb {BasedOnField A3}
  99643,                                  ! Barometric Pressure {Pa}
  4.1,                                    ! Wind Speed {m/s}
  220,                                    ! Wind Direction {deg}
  0,                                      ! Sky Clearness
  0,                                      ! Rain Indicator
  0,                                      ! Snow Indicator
  21,                                     ! Day of Month
  7,                                      ! Month
  SummerDesignDay,                        ! Day Type
  0,                                      ! Daylight Saving Time Indicator
  Wetbulb,                                ! Humidity Indicating Type
  ,                                       ! Humidity Indicating Day Schedule Name
  DefaultMultipliers,                     ! Dry-Bulb Temperature Range Modifier Type
  ,                                       ! Dry-Bulb Temperature Range Modifier Schedule Name
  ASHRAETau,                              ! Solar Model Indicator
  ,                                       ! Beam Solar Day Schedule Name
  ,                                       ! Diffuse Solar Day Schedule Name
  0.475,                                  ! ASHRAE Taub {dimensionless}
  1.999;                                  ! ASHRAE Taud {dimensionless}

OS:ComponentData,
  {e352df68-561d-46f6-8f2d-326697adb140}, ! Handle
  Component Data 1,                       ! Name
  {36e360d4-7c6b-4c1f-8c7a-68fbbaac0a80}, ! UUID
  {3fb95a60-3cfb-43df-9dd7-1b0a0051cb62}, ! Version UUID
  1366308590,                             ! Creation Timestamp
  1366308590,                             ! Version Timestamp
  {d7f0e580-e58f-474e-b24f-0881639a1aa9}; ! Name of Object 1

