
OS:Version,
  {92827bad-c927-4024-af71-a76fb8c018c7}, ! Handle
  0.9.3;                                  ! Version Identifier

OS:SizingPeriod:DesignDay,
  {0ebd4e8d-8e99-4b46-a8b7-3ee9df760adf}, ! Handle
  Valdez Wso Ann Htg 99.6% Condns DB,     ! Name
  -15.4,                                  ! Maximum Dry-Bulb Temperature {C}
  0,                                      ! Daily Dry-Bulb Temperature Range {deltaC}
  -15.4,                                  ! Humidity Indicating Conditions at Maximum Dry-Bulb {BasedOnField A3}
  101241,                                 ! Barometric Pressure {Pa}
  6.3,                                    ! Wind Speed {m/s}
  60,                                     ! Wind Direction {deg}
  0,                                      ! Sky Clearness
  0,                                      ! Rain Indicator
  0,                                      ! Snow Indicator
  21,                                     ! Day of Month
  1,                                      ! Month
  WinterDesignDay,                        ! Day Type
  0,                                      ! Daylight Saving Time Indicator
  Wetbulb,                                ! Humidity Indicating Type
  ,                                       ! Humidity Indicating Day Schedule Name
  DefaultMultipliers,                     ! Dry-Bulb Temperature Range Modifier Type
  ,                                       ! Dry-Bulb Temperature Range Modifier Schedule Name
  ASHRAEClearSky;                         ! Solar Model Indicator

OS:ComponentData,
  {94092ded-8363-445f-b2f9-97bfb3febd2c}, ! Handle
  Component Data 1,                       ! Name
  {945cccc2-7021-4048-b89b-a750e9819592}, ! UUID
  {be358d6e-0705-469d-bc41-6f4022fa6191}, ! Version UUID
  1366305606,                             ! Creation Timestamp
  1366305606,                             ! Version Timestamp
  {0ebd4e8d-8e99-4b46-a8b7-3ee9df760adf}; ! Name of Object 1

