
OS:Version,
  {e781fcb7-60e2-4052-bc37-9fab87d4e8c9}, ! Handle
  0.9.3;                                  ! Version Identifier

OS:SizingPeriod:DesignDay,
  {fd1d385d-e66e-466a-8587-8d90d3c7bdb5}, ! Handle
  North Platte Regional Ap Ann Clg .4% Condns DB=>MWB, ! Name
  35.7,                                   ! Maximum Dry-Bulb Temperature {C}
  14.5,                                   ! Daily Dry-Bulb Temperature Range {deltaC}
  21.1,                                   ! Humidity Indicating Conditions at Maximum Dry-Bulb {BasedOnField A3}
  91555,                                  ! Barometric Pressure {Pa}
  5.5,                                    ! Wind Speed {m/s}
  180,                                    ! Wind Direction {deg}
  0,                                      ! Sky Clearness
  0,                                      ! Rain Indicator
  0,                                      ! Snow Indicator
  21,                                     ! Day of Month
  7,                                      ! Month
  SummerDesignDay,                        ! Day Type
  0,                                      ! Daylight Saving Time Indicator
  Wetbulb,                                ! Humidity Indicating Type
  ,                                       ! Humidity Indicating Day Schedule Name
  DefaultMultipliers,                     ! Dry-Bulb Temperature Range Modifier Type
  ,                                       ! Dry-Bulb Temperature Range Modifier Schedule Name
  ASHRAETau,                              ! Solar Model Indicator
  ,                                       ! Beam Solar Day Schedule Name
  ,                                       ! Diffuse Solar Day Schedule Name
  0.417,                                  ! ASHRAE Taub {dimensionless}
  2.141;                                  ! ASHRAE Taud {dimensionless}

OS:ComponentData,
  {220b022a-734b-4b1c-917c-a2e1cd8e78ac}, ! Handle
  Component Data 1,                       ! Name
  {ab028a3c-29d7-44a7-8826-212f30115871}, ! UUID
  {3190def7-f417-488b-8dcf-c7ccd731a0b8}, ! Version UUID
  1366309165,                             ! Creation Timestamp
  1366309165,                             ! Version Timestamp
  {fd1d385d-e66e-466a-8587-8d90d3c7bdb5}; ! Name of Object 1

