
OS:Version,
  {93972696-6ea5-4325-b59e-c8fb90385f26}, ! Handle
  0.9.3;                                  ! Version Identifier

OS:SizingPeriod:DesignDay,
  {1e5d83d8-d837-4b26-87ab-949d01416e34}, ! Handle
  Marfa Ap Ann Clg 1% Condns DP=>MDB,     ! Name
  21.2,                                   ! Maximum Dry-Bulb Temperature {C}
  17.6,                                   ! Daily Dry-Bulb Temperature Range {deltaC}
  17.2,                                   ! Humidity Indicating Conditions at Maximum Dry-Bulb {BasedOnField A3}
  84836,                                  ! Barometric Pressure {Pa}
  4.3,                                    ! Wind Speed {m/s}
  180,                                    ! Wind Direction {deg}
  0,                                      ! Sky Clearness
  0,                                      ! Rain Indicator
  0,                                      ! Snow Indicator
  21,                                     ! Day of Month
  6,                                      ! Month
  SummerDesignDay,                        ! Day Type
  0,                                      ! Daylight Saving Time Indicator
  Dewpoint,                               ! Humidity Indicating Type
  ,                                       ! Humidity Indicating Day Schedule Name
  DefaultMultipliers,                     ! Dry-Bulb Temperature Range Modifier Type
  ,                                       ! Dry-Bulb Temperature Range Modifier Schedule Name
  ASHRAETau,                              ! Solar Model Indicator
  ,                                       ! Beam Solar Day Schedule Name
  ,                                       ! Diffuse Solar Day Schedule Name
  0.481,                                  ! ASHRAE Taub {dimensionless}
  1.819;                                  ! ASHRAE Taud {dimensionless}

OS:ComponentData,
  {0c017ce2-5481-4303-b8f3-538291157eb0}, ! Handle
  Component Data 1,                       ! Name
  {d6b1b669-283a-43ba-a01f-8b005029adc0}, ! UUID
  {06d00fc4-71d3-4058-9c79-9f6bf84542b6}, ! Version UUID
  1366310816,                             ! Creation Timestamp
  1366310816,                             ! Version Timestamp
  {1e5d83d8-d837-4b26-87ab-949d01416e34}; ! Name of Object 1

