
OS:Version,
  {1af44968-4c7f-4448-a498-0b2dc97023e9}, ! Handle
  0.9.3;                                  ! Version Identifier

OS:SizingPeriod:DesignDay,
  {8c33f0ec-b713-44ab-a84b-1866e796f8d9}, ! Handle
  Orlando Sanford Airport Ann Clg .4% Condns Enth=>MDB, ! Name
  31.5,                                   ! Maximum Dry-Bulb Temperature {C}
  9.6,                                    ! Daily Dry-Bulb Temperature Range {deltaC}
  79500,                                  ! Humidity Indicating Conditions at Maximum Dry-Bulb {BasedOnField A3}
  101121,                                 ! Barometric Pressure {Pa}
  3.7,                                    ! Wind Speed {m/s}
  250,                                    ! Wind Direction {deg}
  0,                                      ! Sky Clearness
  0,                                      ! Rain Indicator
  0,                                      ! Snow Indicator
  21,                                     ! Day of Month
  7,                                      ! Month
  SummerDesignDay,                        ! Day Type
  0,                                      ! Daylight Saving Time Indicator
  Enthalpy,                               ! Humidity Indicating Type
  ,                                       ! Humidity Indicating Day Schedule Name
  DefaultMultipliers,                     ! Dry-Bulb Temperature Range Modifier Type
  ,                                       ! Dry-Bulb Temperature Range Modifier Schedule Name
  ASHRAETau,                              ! Solar Model Indicator
  ,                                       ! Beam Solar Day Schedule Name
  ,                                       ! Diffuse Solar Day Schedule Name
  0.516,                                  ! ASHRAE Taub {dimensionless}
  1.929;                                  ! ASHRAE Taud {dimensionless}

OS:ComponentData,
  {a5fde058-f860-4bd2-b4d4-8cb26c943d3d}, ! Handle
  Component Data 1,                       ! Name
  {c0e35f22-e94c-412a-a9c3-07f87af37052}, ! UUID
  {dd0939e6-68f5-4259-9616-bf461677830a}, ! Version UUID
  1366306885,                             ! Creation Timestamp
  1366306885,                             ! Version Timestamp
  {8c33f0ec-b713-44ab-a84b-1866e796f8d9}; ! Name of Object 1

