
OS:Version,
  {f2204e47-73b3-42b3-89ac-2a72e033ef93}, ! Handle
  0.9.3;                                  ! Version Identifier

OS:SizingPeriod:DesignDay,
  {ef98e520-0432-4b35-94d9-1fcea2b6bf60}, ! Handle
  Vance Afb Ann Clg 2% Condns DB=>MWB,    ! Name
  35.3,                                   ! Maximum Dry-Bulb Temperature {C}
  12.3,                                   ! Daily Dry-Bulb Temperature Range {deltaC}
  23.1,                                   ! Humidity Indicating Conditions at Maximum Dry-Bulb {BasedOnField A3}
  96519,                                  ! Barometric Pressure {Pa}
  5.5,                                    ! Wind Speed {m/s}
  190,                                    ! Wind Direction {deg}
  0,                                      ! Sky Clearness
  0,                                      ! Rain Indicator
  0,                                      ! Snow Indicator
  21,                                     ! Day of Month
  7,                                      ! Month
  SummerDesignDay,                        ! Day Type
  0,                                      ! Daylight Saving Time Indicator
  Wetbulb,                                ! Humidity Indicating Type
  ,                                       ! Humidity Indicating Day Schedule Name
  DefaultMultipliers,                     ! Dry-Bulb Temperature Range Modifier Type
  ,                                       ! Dry-Bulb Temperature Range Modifier Schedule Name
  ASHRAETau,                              ! Solar Model Indicator
  ,                                       ! Beam Solar Day Schedule Name
  ,                                       ! Diffuse Solar Day Schedule Name
  0.425,                                  ! ASHRAE Taub {dimensionless}
  2.194;                                  ! ASHRAE Taud {dimensionless}

OS:ComponentData,
  {74aa7d2c-7bc1-4006-8b69-f1ea9e268713}, ! Handle
  Component Data 1,                       ! Name
  {569e3b96-ff9d-4f08-9ec8-d82646087406}, ! UUID
  {b01a04d1-fbb8-4d23-a8af-c018084f0ab9}, ! Version UUID
  1366309963,                             ! Creation Timestamp
  1366309963,                             ! Version Timestamp
  {ef98e520-0432-4b35-94d9-1fcea2b6bf60}; ! Name of Object 1

