
OS:Version,
  {ea92a92d-b3c2-4722-858a-a8a12ba73e67}, ! Handle
  0.9.3;                                  ! Version Identifier

OS:SizingPeriod:DesignDay,
  {b765c5aa-fbba-4ba1-9ed2-7f67d7e67620}, ! Handle
  Shannon Arpt Ann Clg 1% Condns WB=>MDB, ! Name
  32,                                     ! Maximum Dry-Bulb Temperature {C}
  11.5,                                   ! Daily Dry-Bulb Temperature Range {deltaC}
  25.5,                                   ! Humidity Indicating Conditions at Maximum Dry-Bulb {BasedOnField A3}
  101013,                                 ! Barometric Pressure {Pa}
  3.1,                                    ! Wind Speed {m/s}
  220,                                    ! Wind Direction {deg}
  0,                                      ! Sky Clearness
  0,                                      ! Rain Indicator
  0,                                      ! Snow Indicator
  21,                                     ! Day of Month
  7,                                      ! Month
  SummerDesignDay,                        ! Day Type
  0,                                      ! Daylight Saving Time Indicator
  Wetbulb,                                ! Humidity Indicating Type
  ,                                       ! Humidity Indicating Day Schedule Name
  DefaultMultipliers,                     ! Dry-Bulb Temperature Range Modifier Type
  ,                                       ! Dry-Bulb Temperature Range Modifier Schedule Name
  ASHRAETau,                              ! Solar Model Indicator
  ,                                       ! Beam Solar Day Schedule Name
  ,                                       ! Diffuse Solar Day Schedule Name
  0.568,                                  ! ASHRAE Taub {dimensionless}
  1.741;                                  ! ASHRAE Taud {dimensionless}

OS:ComponentData,
  {b92b6d14-821c-4ae6-86d4-3a33d92bae8c}, ! Handle
  Component Data 1,                       ! Name
  {e99e927c-5d13-4cf1-be21-b428e185bbe2}, ! UUID
  {9dbfd102-ae11-4a41-b4e9-1e52a34a57cd}, ! Version UUID
  1366311054,                             ! Creation Timestamp
  1366311054,                             ! Version Timestamp
  {b765c5aa-fbba-4ba1-9ed2-7f67d7e67620}; ! Name of Object 1

