
OS:Version,
  {f995937e-1001-4290-ada1-98e5348ebd03}, ! Handle
  0.9.3;                                  ! Version Identifier

OS:SizingPeriod:DesignDay,
  {3415d8b5-3d40-4f89-82b2-a08405399f22}, ! Handle
  New Orleans Lakefront Ap Ann Clg .4% Condns WB=>MDB, ! Name
  31.9,                                   ! Maximum Dry-Bulb Temperature {C}
  6.6,                                    ! Daily Dry-Bulb Temperature Range {deltaC}
  27.4,                                   ! Humidity Indicating Conditions at Maximum Dry-Bulb {BasedOnField A3}
  101289,                                 ! Barometric Pressure {Pa}
  3.8,                                    ! Wind Speed {m/s}
  320,                                    ! Wind Direction {deg}
  0,                                      ! Sky Clearness
  0,                                      ! Rain Indicator
  0,                                      ! Snow Indicator
  21,                                     ! Day of Month
  8,                                      ! Month
  SummerDesignDay,                        ! Day Type
  0,                                      ! Daylight Saving Time Indicator
  Wetbulb,                                ! Humidity Indicating Type
  ,                                       ! Humidity Indicating Day Schedule Name
  DefaultMultipliers,                     ! Dry-Bulb Temperature Range Modifier Type
  ,                                       ! Dry-Bulb Temperature Range Modifier Schedule Name
  ASHRAETau,                              ! Solar Model Indicator
  ,                                       ! Beam Solar Day Schedule Name
  ,                                       ! Diffuse Solar Day Schedule Name
  0.551,                                  ! ASHRAE Taub {dimensionless}
  1.829;                                  ! ASHRAE Taud {dimensionless}

OS:ComponentData,
  {08906b57-f791-43e5-9990-c5158a187dd2}, ! Handle
  Component Data 1,                       ! Name
  {be531d08-419a-4be3-b6b2-50197b604d67}, ! UUID
  {b51e192a-8cef-41c4-a4ce-f8a649356a91}, ! Version UUID
  1366307744,                             ! Creation Timestamp
  1366307744,                             ! Version Timestamp
  {3415d8b5-3d40-4f89-82b2-a08405399f22}; ! Name of Object 1

