
OS:Version,
  {00688afa-9316-4a38-ae05-c89d15a29dd6}, ! Handle
  0.9.3;                                  ! Version Identifier

OS:SizingPeriod:DesignDay,
  {59da3eeb-e84b-40d8-a9fd-96be7842424c}, ! Handle
  SALEM Ann Clg 1% Condns Enth=>MDB,      ! Name
  29.3,                                   ! Maximum Dry-Bulb Temperature {C}
  15.4,                                   ! Daily Dry-Bulb Temperature Range {deltaC}
  55200,                                  ! Humidity Indicating Conditions at Maximum Dry-Bulb {BasedOnField A3}
  100594,                                 ! Barometric Pressure {Pa}
  4.3,                                    ! Wind Speed {m/s}
  0,                                      ! Wind Direction {deg}
  0,                                      ! Sky Clearness
  0,                                      ! Rain Indicator
  0,                                      ! Snow Indicator
  21,                                     ! Day of Month
  8,                                      ! Month
  SummerDesignDay,                        ! Day Type
  0,                                      ! Daylight Saving Time Indicator
  Enthalpy,                               ! Humidity Indicating Type
  ,                                       ! Humidity Indicating Day Schedule Name
  DefaultMultipliers,                     ! Dry-Bulb Temperature Range Modifier Type
  ,                                       ! Dry-Bulb Temperature Range Modifier Schedule Name
  ASHRAETau,                              ! Solar Model Indicator
  ,                                       ! Beam Solar Day Schedule Name
  ,                                       ! Diffuse Solar Day Schedule Name
  0.355,                                  ! ASHRAE Taub {dimensionless}
  2.578;                                  ! ASHRAE Taud {dimensionless}

OS:ComponentData,
  {a57b3a75-73ae-4483-bf2f-8ce813d57f6c}, ! Handle
  Component Data 1,                       ! Name
  {5642de38-a352-4396-9f6f-39ab2c2d5e59}, ! UUID
  {f1cc8703-66d7-405b-8da9-faea5f2fb45d}, ! Version UUID
  1366310119,                             ! Creation Timestamp
  1366310119,                             ! Version Timestamp
  {59da3eeb-e84b-40d8-a9fd-96be7842424c}; ! Name of Object 1

