
OS:Version,
  {d5ee4e10-cac0-42a4-be4f-735e63e7286b}, ! Handle
  0.9.3;                                  ! Version Identifier

OS:SizingPeriod:DesignDay,
  {ed1c20eb-610d-4fd7-9e07-94cdd1300a73}, ! Handle
  Skagway Airport Ann Hum_n 99.6% Condns DP=>MCDB, ! Name
  -15.4,                                  ! Maximum Dry-Bulb Temperature {C}
  0,                                      ! Daily Dry-Bulb Temperature Range {deltaC}
  -27.9,                                  ! Humidity Indicating Conditions at Maximum Dry-Bulb {BasedOnField A3}
  101217,                                 ! Barometric Pressure {Pa}
  11.1,                                   ! Wind Speed {m/s}
  40,                                     ! Wind Direction {deg}
  0,                                      ! Sky Clearness
  0,                                      ! Rain Indicator
  0,                                      ! Snow Indicator
  21,                                     ! Day of Month
  1,                                      ! Month
  WinterDesignDay,                        ! Day Type
  0,                                      ! Daylight Saving Time Indicator
  Dewpoint,                               ! Humidity Indicating Type
  ,                                       ! Humidity Indicating Day Schedule Name
  DefaultMultipliers,                     ! Dry-Bulb Temperature Range Modifier Type
  ,                                       ! Dry-Bulb Temperature Range Modifier Schedule Name
  ASHRAEClearSky;                         ! Solar Model Indicator

OS:ComponentData,
  {64b71116-65a7-45eb-ae45-dc114833e288}, ! Handle
  Component Data 1,                       ! Name
  {ebebbe96-8145-47e7-93b9-c0bfc1298e7d}, ! UUID
  {7cce8f05-886b-40f9-a182-82b599a04904}, ! Version UUID
  1366305558,                             ! Creation Timestamp
  1366305558,                             ! Version Timestamp
  {ed1c20eb-610d-4fd7-9e07-94cdd1300a73}; ! Name of Object 1

