
OS:Version,
  {52312fb8-f22c-4660-832d-f2fcb6984736}, ! Handle
  0.9.3;                                  ! Version Identifier

OS:SizingPeriod:DesignDay,
  {15033a1f-bdbe-4066-9b42-08f67124f618}, ! Handle
  SAN_DIEGO Ann Clg .4% Condns Enth=>MDB, ! Name
  26.5,                                   ! Maximum Dry-Bulb Temperature {C}
  4.9,                                    ! Daily Dry-Bulb Temperature Range {deltaC}
  66800,                                  ! Humidity Indicating Conditions at Maximum Dry-Bulb {BasedOnField A3}
  101217,                                 ! Barometric Pressure {Pa}
  4.6,                                    ! Wind Speed {m/s}
  300,                                    ! Wind Direction {deg}
  0,                                      ! Sky Clearness
  0,                                      ! Rain Indicator
  0,                                      ! Snow Indicator
  21,                                     ! Day of Month
  8,                                      ! Month
  SummerDesignDay,                        ! Day Type
  0,                                      ! Daylight Saving Time Indicator
  Enthalpy,                               ! Humidity Indicating Type
  ,                                       ! Humidity Indicating Day Schedule Name
  DefaultMultipliers,                     ! Dry-Bulb Temperature Range Modifier Type
  ,                                       ! Dry-Bulb Temperature Range Modifier Schedule Name
  ASHRAETau,                              ! Solar Model Indicator
  ,                                       ! Beam Solar Day Schedule Name
  ,                                       ! Diffuse Solar Day Schedule Name
  0.426,                                  ! ASHRAE Taub {dimensionless}
  2.214;                                  ! ASHRAE Taud {dimensionless}

OS:ComponentData,
  {7ff30bd9-b2ad-4e36-aa71-d1a1ebd77b77}, ! Handle
  Component Data 1,                       ! Name
  {e564811c-ddec-439e-acaa-a473cfb4231b}, ! UUID
  {353b36c2-20bb-4001-b3e7-2477ede0d04d}, ! Version UUID
  1366306587,                             ! Creation Timestamp
  1366306587,                             ! Version Timestamp
  {15033a1f-bdbe-4066-9b42-08f67124f618}; ! Name of Object 1

