
OS:Version,
  {683e8b17-1407-49b3-9561-26884c076d59}, ! Handle
  0.9.3;                                  ! Version Identifier

OS:SizingPeriod:DesignDay,
  {d45baf90-7696-474e-b17e-24074ef3b97e}, ! Handle
  Red Bluff Ann Hum_n 99.6% Condns DP=>MCDB, ! Name
  10.8,                                   ! Maximum Dry-Bulb Temperature {C}
  0,                                      ! Daily Dry-Bulb Temperature Range {deltaC}
  -9.9,                                   ! Humidity Indicating Conditions at Maximum Dry-Bulb {BasedOnField A3}
  100058,                                 ! Barometric Pressure {Pa}
  2.3,                                    ! Wind Speed {m/s}
  320,                                    ! Wind Direction {deg}
  0,                                      ! Sky Clearness
  0,                                      ! Rain Indicator
  0,                                      ! Snow Indicator
  21,                                     ! Day of Month
  12,                                     ! Month
  WinterDesignDay,                        ! Day Type
  0,                                      ! Daylight Saving Time Indicator
  Dewpoint,                               ! Humidity Indicating Type
  ,                                       ! Humidity Indicating Day Schedule Name
  DefaultMultipliers,                     ! Dry-Bulb Temperature Range Modifier Type
  ,                                       ! Dry-Bulb Temperature Range Modifier Schedule Name
  ASHRAEClearSky;                         ! Solar Model Indicator

OS:ComponentData,
  {c1c11c03-9427-4c15-93f0-354a263b3ff5}, ! Handle
  Component Data 1,                       ! Name
  {6b632d78-2777-4912-834f-a64f9dbb3dad}, ! UUID
  {cfba7118-e892-48aa-84be-e1d73df2c272}, ! Version UUID
  1366306543,                             ! Creation Timestamp
  1366306543,                             ! Version Timestamp
  {d45baf90-7696-474e-b17e-24074ef3b97e}; ! Name of Object 1

