
OS:Version,
  {6a0c5828-7b94-4be4-9b78-dbc7a7799a41}, ! Handle
  0.9.3;                                  ! Version Identifier

OS:SizingPeriod:DesignDay,
  {0fcbdc29-3929-468e-bce9-58c346b8a669}, ! Handle
  SALT_LAKE Ann Clg 2% Condns DB=>MWB,    ! Name
  33.5,                                   ! Maximum Dry-Bulb Temperature {C}
  14.4,                                   ! Daily Dry-Bulb Temperature Range {deltaC}
  16.6,                                   ! Humidity Indicating Conditions at Maximum Dry-Bulb {BasedOnField A3}
  86779,                                  ! Barometric Pressure {Pa}
  5.1,                                    ! Wind Speed {m/s}
  340,                                    ! Wind Direction {deg}
  0,                                      ! Sky Clearness
  0,                                      ! Rain Indicator
  0,                                      ! Snow Indicator
  21,                                     ! Day of Month
  7,                                      ! Month
  SummerDesignDay,                        ! Day Type
  0,                                      ! Daylight Saving Time Indicator
  Wetbulb,                                ! Humidity Indicating Type
  ,                                       ! Humidity Indicating Day Schedule Name
  DefaultMultipliers,                     ! Dry-Bulb Temperature Range Modifier Type
  ,                                       ! Dry-Bulb Temperature Range Modifier Schedule Name
  ASHRAETau,                              ! Solar Model Indicator
  ,                                       ! Beam Solar Day Schedule Name
  ,                                       ! Diffuse Solar Day Schedule Name
  0.44,                                   ! ASHRAE Taub {dimensionless}
  1.968;                                  ! ASHRAE Taud {dimensionless}

OS:ComponentData,
  {26c83899-3917-44a3-b7b0-40705e5a78f5}, ! Handle
  Component Data 1,                       ! Name
  {9d77d59b-2b52-4f89-9882-41f99ebf66ce}, ! UUID
  {c80b2039-29e2-401c-818e-798d21b615f5}, ! Version UUID
  1366310988,                             ! Creation Timestamp
  1366310988,                             ! Version Timestamp
  {0fcbdc29-3929-468e-bce9-58c346b8a669}; ! Name of Object 1

