
OS:Version,
  {7d1f7f6a-0288-4340-87a0-e20ce599b345}, ! Handle
  0.9.3;                                  ! Version Identifier

OS:SizingPeriod:DesignDay,
  {879d1d4c-72c0-42fa-914d-b07140e4358d}, ! Handle
  SHREVEPORT Ann Clg 1% Condns Enth=>MDB, ! Name
  32.5,                                   ! Maximum Dry-Bulb Temperature {C}
  10.7,                                   ! Daily Dry-Bulb Temperature Range {deltaC}
  80400,                                  ! Humidity Indicating Conditions at Maximum Dry-Bulb {BasedOnField A3}
  100380,                                 ! Barometric Pressure {Pa}
  3.3,                                    ! Wind Speed {m/s}
  180,                                    ! Wind Direction {deg}
  0,                                      ! Sky Clearness
  0,                                      ! Rain Indicator
  0,                                      ! Snow Indicator
  21,                                     ! Day of Month
  7,                                      ! Month
  SummerDesignDay,                        ! Day Type
  0,                                      ! Daylight Saving Time Indicator
  Enthalpy,                               ! Humidity Indicating Type
  ,                                       ! Humidity Indicating Day Schedule Name
  DefaultMultipliers,                     ! Dry-Bulb Temperature Range Modifier Type
  ,                                       ! Dry-Bulb Temperature Range Modifier Schedule Name
  ASHRAETau,                              ! Solar Model Indicator
  ,                                       ! Beam Solar Day Schedule Name
  ,                                       ! Diffuse Solar Day Schedule Name
  0.489,                                  ! ASHRAE Taub {dimensionless}
  2.014;                                  ! ASHRAE Taud {dimensionless}

OS:ComponentData,
  {6c47a499-f7c6-4aad-8296-0e2dc2bd4e24}, ! Handle
  Component Data 1,                       ! Name
  {3f76a076-2904-4528-98ff-754198d31183}, ! UUID
  {b99271d8-618c-48fc-9047-1019983d2ec2}, ! Version UUID
  1366307763,                             ! Creation Timestamp
  1366307763,                             ! Version Timestamp
  {879d1d4c-72c0-42fa-914d-b07140e4358d}; ! Name of Object 1

