
OS:Version,
  {7d789fe3-8c7e-47dc-a085-7104e6143415}, ! Handle
  0.9.3;                                  ! Version Identifier

OS:SizingPeriod:DesignDay,
  {d9abb982-6a01-4d03-a530-f0d197791b3d}, ! Handle
  New Orleans Lakefront Ap Ann Hum_n 99.6% Condns DP=>MCDB, ! Name
  3.7,                                    ! Maximum Dry-Bulb Temperature {C}
  0,                                      ! Daily Dry-Bulb Temperature Range {deltaC}
  -7.7,                                   ! Humidity Indicating Conditions at Maximum Dry-Bulb {BasedOnField A3}
  101289,                                 ! Barometric Pressure {Pa}
  6.5,                                    ! Wind Speed {m/s}
  0,                                      ! Wind Direction {deg}
  0,                                      ! Sky Clearness
  0,                                      ! Rain Indicator
  0,                                      ! Snow Indicator
  21,                                     ! Day of Month
  1,                                      ! Month
  WinterDesignDay,                        ! Day Type
  0,                                      ! Daylight Saving Time Indicator
  Dewpoint,                               ! Humidity Indicating Type
  ,                                       ! Humidity Indicating Day Schedule Name
  DefaultMultipliers,                     ! Dry-Bulb Temperature Range Modifier Type
  ,                                       ! Dry-Bulb Temperature Range Modifier Schedule Name
  ASHRAEClearSky;                         ! Solar Model Indicator

OS:ComponentData,
  {77cebefe-1d12-42d6-9335-de81ae8ef2b8}, ! Handle
  Component Data 1,                       ! Name
  {6f8b7c83-5168-4e5c-b95b-05b6ef7164af}, ! UUID
  {e20c19b2-7f85-4cae-be82-e23c2988a87b}, ! Version UUID
  1366307743,                             ! Creation Timestamp
  1366307743,                             ! Version Timestamp
  {d9abb982-6a01-4d03-a530-f0d197791b3d}; ! Name of Object 1

