
OS:Version,
  {23e7def0-b188-43ee-8ca3-11b36a39b276}, ! Handle
  0.9.3;                                  ! Version Identifier

OS:SizingPeriod:DesignDay,
  {c6248f60-877c-4cd8-b432-917d23472290}, ! Handle
  Waco Ann Clg 1% Condns DB=>MWB,         ! Name
  37.2,                                   ! Maximum Dry-Bulb Temperature {C}
  11.9,                                   ! Daily Dry-Bulb Temperature Range {deltaC}
  24,                                     ! Humidity Indicating Conditions at Maximum Dry-Bulb {BasedOnField A3}
  99477,                                  ! Barometric Pressure {Pa}
  4.9,                                    ! Wind Speed {m/s}
  180,                                    ! Wind Direction {deg}
  0,                                      ! Sky Clearness
  0,                                      ! Rain Indicator
  0,                                      ! Snow Indicator
  21,                                     ! Day of Month
  7,                                      ! Month
  SummerDesignDay,                        ! Day Type
  0,                                      ! Daylight Saving Time Indicator
  Wetbulb,                                ! Humidity Indicating Type
  ,                                       ! Humidity Indicating Day Schedule Name
  DefaultMultipliers,                     ! Dry-Bulb Temperature Range Modifier Type
  ,                                       ! Dry-Bulb Temperature Range Modifier Schedule Name
  ASHRAETau,                              ! Solar Model Indicator
  ,                                       ! Beam Solar Day Schedule Name
  ,                                       ! Diffuse Solar Day Schedule Name
  0.46,                                   ! ASHRAE Taub {dimensionless}
  2.098;                                  ! ASHRAE Taud {dimensionless}

OS:ComponentData,
  {460b3261-f094-4f70-afa6-4a5a4b3a8f81}, ! Handle
  Component Data 1,                       ! Name
  {8943a64d-7b02-414e-bee4-d705a2eb5bcc}, ! UUID
  {c6e27e32-cf4e-481a-9b0b-47cbafb6bd31}, ! Version UUID
  1366310920,                             ! Creation Timestamp
  1366310920,                             ! Version Timestamp
  {c6248f60-877c-4cd8-b432-917d23472290}; ! Name of Object 1

