
OS:Version,
  {56ba0ff6-0258-42df-bd3f-fdb00bd43b5d}, ! Handle
  0.9.3;                                  ! Version Identifier

OS:SizingPeriod:DesignDay,
  {5f569bc3-e538-44c3-b009-4f4dcc445d3e}, ! Handle
  Oxford  Awos Ann Clg 2% Condns Enth=>MDB, ! Name
  25.1,                                   ! Maximum Dry-Bulb Temperature {C}
  10.3,                                   ! Daily Dry-Bulb Temperature Range {deltaC}
  66400,                                  ! Humidity Indicating Conditions at Maximum Dry-Bulb {BasedOnField A3}
  98686,                                  ! Barometric Pressure {Pa}
  2.7,                                    ! Wind Speed {m/s}
  300,                                    ! Wind Direction {deg}
  0,                                      ! Sky Clearness
  0,                                      ! Rain Indicator
  0,                                      ! Snow Indicator
  21,                                     ! Day of Month
  7,                                      ! Month
  SummerDesignDay,                        ! Day Type
  0,                                      ! Daylight Saving Time Indicator
  Enthalpy,                               ! Humidity Indicating Type
  ,                                       ! Humidity Indicating Day Schedule Name
  DefaultMultipliers,                     ! Dry-Bulb Temperature Range Modifier Type
  ,                                       ! Dry-Bulb Temperature Range Modifier Schedule Name
  ASHRAETau,                              ! Solar Model Indicator
  ,                                       ! Beam Solar Day Schedule Name
  ,                                       ! Diffuse Solar Day Schedule Name
  0.477,                                  ! ASHRAE Taub {dimensionless}
  1.955;                                  ! ASHRAE Taud {dimensionless}

OS:ComponentData,
  {f11ef215-3108-41ab-a997-9f3574df0f8a}, ! Handle
  Component Data 1,                       ! Name
  {c448a446-097c-4f9e-84c1-71a1bd76a5d9}, ! UUID
  {a92752f4-7b01-4c47-be22-c72b4c95a1a5}, ! Version UUID
  1366306767,                             ! Creation Timestamp
  1366306767,                             ! Version Timestamp
  {5f569bc3-e538-44c3-b009-4f4dcc445d3e}; ! Name of Object 1

