
OS:Version,
  {61a93e81-19fa-4f39-9f12-19292c132784}, ! Handle
  0.9.3;                                  ! Version Identifier

OS:SizingPeriod:DesignDay,
  {ede781af-ddf9-4164-9307-1433db3d4546}, ! Handle
  William R Fairchild Ann Htg Wind 99% Condns WS=>MCDB, ! Name
  6.5,                                    ! Maximum Dry-Bulb Temperature {C}
  0,                                      ! Daily Dry-Bulb Temperature Range {deltaC}
  6.5,                                    ! Humidity Indicating Conditions at Maximum Dry-Bulb {BasedOnField A3}
  100237,                                 ! Barometric Pressure {Pa}
  8,                                      ! Wind Speed {m/s}
  110,                                    ! Wind Direction {deg}
  0,                                      ! Sky Clearness
  0,                                      ! Rain Indicator
  0,                                      ! Snow Indicator
  21,                                     ! Day of Month
  1,                                      ! Month
  WinterDesignDay,                        ! Day Type
  0,                                      ! Daylight Saving Time Indicator
  Wetbulb,                                ! Humidity Indicating Type
  ,                                       ! Humidity Indicating Day Schedule Name
  DefaultMultipliers,                     ! Dry-Bulb Temperature Range Modifier Type
  ,                                       ! Dry-Bulb Temperature Range Modifier Schedule Name
  ASHRAEClearSky;                         ! Solar Model Indicator

OS:ComponentData,
  {ba75d56b-129b-4cd4-b063-63c3606a7e22}, ! Handle
  Component Data 1,                       ! Name
  {1564421d-bc7e-4554-9817-33eddbc119ed}, ! UUID
  {6aa0b920-fe59-46a0-870d-4de35f08beab}, ! Version UUID
  1366311324,                             ! Creation Timestamp
  1366311324,                             ! Version Timestamp
  {ede781af-ddf9-4164-9307-1433db3d4546}; ! Name of Object 1

