
OS:Version,
  {678d9afe-05a5-4fa3-a348-c16b798ae057}, ! Handle
  0.9.3;                                  ! Version Identifier

OS:SizingPeriod:DesignDay,
  {a0839841-b1a8-4568-8da2-2d7879fb01d6}, ! Handle
  Sarasota Bradenton Ann Clg 1% Condns Enth=>MDB, ! Name
  31.4,                                   ! Maximum Dry-Bulb Temperature {C}
  8.3,                                    ! Daily Dry-Bulb Temperature Range {deltaC}
  87200,                                  ! Humidity Indicating Conditions at Maximum Dry-Bulb {BasedOnField A3}
  101205,                                 ! Barometric Pressure {Pa}
  4.1,                                    ! Wind Speed {m/s}
  270,                                    ! Wind Direction {deg}
  0,                                      ! Sky Clearness
  0,                                      ! Rain Indicator
  0,                                      ! Snow Indicator
  21,                                     ! Day of Month
  7,                                      ! Month
  SummerDesignDay,                        ! Day Type
  0,                                      ! Daylight Saving Time Indicator
  Enthalpy,                               ! Humidity Indicating Type
  ,                                       ! Humidity Indicating Day Schedule Name
  DefaultMultipliers,                     ! Dry-Bulb Temperature Range Modifier Type
  ,                                       ! Dry-Bulb Temperature Range Modifier Schedule Name
  ASHRAETau,                              ! Solar Model Indicator
  ,                                       ! Beam Solar Day Schedule Name
  ,                                       ! Diffuse Solar Day Schedule Name
  0.498,                                  ! ASHRAE Taub {dimensionless}
  1.995;                                  ! ASHRAE Taud {dimensionless}

OS:ComponentData,
  {a7323484-6ecb-4916-afa4-5e3c84a7a9f8}, ! Handle
  Component Data 1,                       ! Name
  {9a56c4ee-8da0-4c04-b76a-1e69c4315500}, ! UUID
  {87f6f3f5-ab8d-4b7f-963e-9a0d96d66825}, ! Version UUID
  1366306909,                             ! Creation Timestamp
  1366306909,                             ! Version Timestamp
  {a0839841-b1a8-4568-8da2-2d7879fb01d6}; ! Name of Object 1

