
OS:Version,
  {8ce557e0-68cd-4c70-8479-54f9032a997a}, ! Handle
  0.9.3;                                  ! Version Identifier

OS:SizingPeriod:DesignDay,
  {d9073ce6-993c-48b8-9d42-5ddeb99d4750}, ! Handle
  MINNEAPOLIS Ann Clg 2% Condns DP=>MDB,  ! Name
  26,                                     ! Maximum Dry-Bulb Temperature {C}
  9.9,                                    ! Daily Dry-Bulb Temperature Range {deltaC}
  21,                                     ! Humidity Indicating Conditions at Maximum Dry-Bulb {BasedOnField A3}
  98299,                                  ! Barometric Pressure {Pa}
  6,                                      ! Wind Speed {m/s}
  180,                                    ! Wind Direction {deg}
  0,                                      ! Sky Clearness
  0,                                      ! Rain Indicator
  0,                                      ! Snow Indicator
  21,                                     ! Day of Month
  7,                                      ! Month
  SummerDesignDay,                        ! Day Type
  0,                                      ! Daylight Saving Time Indicator
  Dewpoint,                               ! Humidity Indicating Type
  ,                                       ! Humidity Indicating Day Schedule Name
  DefaultMultipliers,                     ! Dry-Bulb Temperature Range Modifier Type
  ,                                       ! Dry-Bulb Temperature Range Modifier Schedule Name
  ASHRAETau,                              ! Solar Model Indicator
  ,                                       ! Beam Solar Day Schedule Name
  ,                                       ! Diffuse Solar Day Schedule Name
  0.416,                                  ! ASHRAE Taub {dimensionless}
  2.18;                                   ! ASHRAE Taud {dimensionless}

OS:ComponentData,
  {0b512185-852b-4c76-a45e-f161d3c920ae}, ! Handle
  Component Data 1,                       ! Name
  {df597c88-798d-4fea-b57f-ea55e9cf991c}, ! UUID
  {b3dd4be3-560e-4369-8ffb-4acca3288260}, ! Version UUID
  1366308313,                             ! Creation Timestamp
  1366308313,                             ! Version Timestamp
  {d9073ce6-993c-48b8-9d42-5ddeb99d4750}; ! Name of Object 1

