
OS:Version,
  {b7fa8d9c-b550-4e1c-9c85-83b542240c0c}, ! Handle
  0.9.3;                                  ! Version Identifier

OS:SizingPeriod:DesignDay,
  {3970677c-136a-45d6-9141-f8f9ff5e5c7c}, ! Handle
  Poughkeepsie Dutchess Co Ap Ann Hum_n 99% Condns DP=>MCDB, ! Name
  -12.4,                                  ! Maximum Dry-Bulb Temperature {C}
  0,                                      ! Daily Dry-Bulb Temperature Range {deltaC}
  -18.5,                                  ! Humidity Indicating Conditions at Maximum Dry-Bulb {BasedOnField A3}
  100762,                                 ! Barometric Pressure {Pa}
  1.4,                                    ! Wind Speed {m/s}
  10,                                     ! Wind Direction {deg}
  0,                                      ! Sky Clearness
  0,                                      ! Rain Indicator
  0,                                      ! Snow Indicator
  21,                                     ! Day of Month
  1,                                      ! Month
  WinterDesignDay,                        ! Day Type
  0,                                      ! Daylight Saving Time Indicator
  Dewpoint,                               ! Humidity Indicating Type
  ,                                       ! Humidity Indicating Day Schedule Name
  DefaultMultipliers,                     ! Dry-Bulb Temperature Range Modifier Type
  ,                                       ! Dry-Bulb Temperature Range Modifier Schedule Name
  ASHRAEClearSky;                         ! Solar Model Indicator

OS:ComponentData,
  {05288f4b-59e1-4ed7-83a1-eb379c4c9d93}, ! Handle
  Component Data 1,                       ! Name
  {8310ff85-77a3-45b0-a0ea-466d8fff3142}, ! UUID
  {f3777803-f606-4cba-afa7-610817261ff4}, ! Version UUID
  1366309704,                             ! Creation Timestamp
  1366309704,                             ! Version Timestamp
  {3970677c-136a-45d6-9141-f8f9ff5e5c7c}; ! Name of Object 1

