
OS:Version,
  {b461aef3-38b7-4173-b78d-5911993157e6}, ! Handle
  0.9.3;                                  ! Version Identifier

OS:SizingPeriod:DesignDay,
  {cef57dd1-1376-43ef-b086-9457556b06c1}, ! Handle
  Midland International Ap Ann Htg Wind 99% Condns WS=>MCDB, ! Name
  11,                                     ! Maximum Dry-Bulb Temperature {C}
  0,                                      ! Daily Dry-Bulb Temperature Range {deltaC}
  11,                                     ! Humidity Indicating Conditions at Maximum Dry-Bulb {BasedOnField A3}
  91279,                                  ! Barometric Pressure {Pa}
  11.7,                                   ! Wind Speed {m/s}
  40,                                     ! Wind Direction {deg}
  0,                                      ! Sky Clearness
  0,                                      ! Rain Indicator
  0,                                      ! Snow Indicator
  21,                                     ! Day of Month
  12,                                     ! Month
  WinterDesignDay,                        ! Day Type
  0,                                      ! Daylight Saving Time Indicator
  Wetbulb,                                ! Humidity Indicating Type
  ,                                       ! Humidity Indicating Day Schedule Name
  DefaultMultipliers,                     ! Dry-Bulb Temperature Range Modifier Type
  ,                                       ! Dry-Bulb Temperature Range Modifier Schedule Name
  ASHRAEClearSky;                         ! Solar Model Indicator

OS:ComponentData,
  {c6b5895f-9205-4623-b8ee-e7193f41305b}, ! Handle
  Component Data 1,                       ! Name
  {499e41f7-c86a-4c8b-8609-7f8804a772ce}, ! UUID
  {0d0f61ac-feb6-4599-8565-743d95669931}, ! Version UUID
  1366310834,                             ! Creation Timestamp
  1366310834,                             ! Version Timestamp
  {cef57dd1-1376-43ef-b086-9457556b06c1}; ! Name of Object 1

