
OS:Version,
  {6b41fb77-b2c6-45dd-8542-4dd5d209b8a2}, ! Handle
  0.9.3;                                  ! Version Identifier

OS:SizingPeriod:DesignDay,
  {eadc3c8a-e6be-4ccd-8666-7a6d13a8f795}, ! Handle
  Wilkes Barre Scranton Intl Ap Ann Htg 99% Condns DB, ! Name
  -13.2,                                  ! Maximum Dry-Bulb Temperature {C}
  0,                                      ! Daily Dry-Bulb Temperature Range {deltaC}
  -13.2,                                  ! Humidity Indicating Conditions at Maximum Dry-Bulb {BasedOnField A3}
  97959,                                  ! Barometric Pressure {Pa}
  3.7,                                    ! Wind Speed {m/s}
  240,                                    ! Wind Direction {deg}
  0,                                      ! Sky Clearness
  0,                                      ! Rain Indicator
  0,                                      ! Snow Indicator
  21,                                     ! Day of Month
  1,                                      ! Month
  WinterDesignDay,                        ! Day Type
  0,                                      ! Daylight Saving Time Indicator
  Wetbulb,                                ! Humidity Indicating Type
  ,                                       ! Humidity Indicating Day Schedule Name
  DefaultMultipliers,                     ! Dry-Bulb Temperature Range Modifier Type
  ,                                       ! Dry-Bulb Temperature Range Modifier Schedule Name
  ASHRAEClearSky;                         ! Solar Model Indicator

OS:ComponentData,
  {4b22fd73-734a-4a78-972c-953c2befda2c}, ! Handle
  Component Data 1,                       ! Name
  {4078daee-1c6e-4184-b7e6-03f924e86cd8}, ! UUID
  {1a1a6556-b8d0-4e63-93d5-06083fc0cde5}, ! Version UUID
  1366310265,                             ! Creation Timestamp
  1366310265,                             ! Version Timestamp
  {eadc3c8a-e6be-4ccd-8666-7a6d13a8f795}; ! Name of Object 1

