
OS:Version,
  {52421963-fe34-4bc9-b7a9-e8855246c711}, ! Handle
  0.9.3;                                  ! Version Identifier

OS:SizingPeriod:DesignDay,
  {3e56f306-f703-444d-a257-e323243ee882}, ! Handle
  Miles City Municipal Arpt Ann Clg 2% Condns DP=>MDB, ! Name
  23.1,                                   ! Maximum Dry-Bulb Temperature {C}
  14.9,                                   ! Daily Dry-Bulb Temperature Range {deltaC}
  15.3,                                   ! Humidity Indicating Conditions at Maximum Dry-Bulb {BasedOnField A3}
  92065,                                  ! Barometric Pressure {Pa}
  4.7,                                    ! Wind Speed {m/s}
  140,                                    ! Wind Direction {deg}
  0,                                      ! Sky Clearness
  0,                                      ! Rain Indicator
  0,                                      ! Snow Indicator
  21,                                     ! Day of Month
  7,                                      ! Month
  SummerDesignDay,                        ! Day Type
  0,                                      ! Daylight Saving Time Indicator
  Dewpoint,                               ! Humidity Indicating Type
  ,                                       ! Humidity Indicating Day Schedule Name
  DefaultMultipliers,                     ! Dry-Bulb Temperature Range Modifier Type
  ,                                       ! Dry-Bulb Temperature Range Modifier Schedule Name
  ASHRAETau,                              ! Solar Model Indicator
  ,                                       ! Beam Solar Day Schedule Name
  ,                                       ! Diffuse Solar Day Schedule Name
  0.418,                                  ! ASHRAE Taub {dimensionless}
  2.061;                                  ! ASHRAE Taud {dimensionless}

OS:ComponentData,
  {1330891c-b015-4621-8a73-1af0a00099dc}, ! Handle
  Component Data 1,                       ! Name
  {45371718-37f0-4860-836c-3075a8e61824}, ! UUID
  {590d24bf-efa9-48a7-9633-c9709c932659}, ! Version UUID
  1366308837,                             ! Creation Timestamp
  1366308837,                             ! Version Timestamp
  {3e56f306-f703-444d-a257-e323243ee882}; ! Name of Object 1

