
OS:Version,
  {4c484699-3f62-4a98-a423-54d80f591f6d}, ! Handle
  0.9.3;                                  ! Version Identifier

OS:SizingPeriod:DesignDay,
  {b392309e-d7ef-4288-b451-aec8058f8eed}, ! Handle
  Norwood Memorial Ann Clg 2% Condns Enth=>MDB, ! Name
  26.8,                                   ! Maximum Dry-Bulb Temperature {C}
  11.9,                                   ! Daily Dry-Bulb Temperature Range {deltaC}
  69200,                                  ! Humidity Indicating Conditions at Maximum Dry-Bulb {BasedOnField A3}
  101145,                                 ! Barometric Pressure {Pa}
  4.7,                                    ! Wind Speed {m/s}
  280,                                    ! Wind Direction {deg}
  0,                                      ! Sky Clearness
  0,                                      ! Rain Indicator
  0,                                      ! Snow Indicator
  21,                                     ! Day of Month
  7,                                      ! Month
  SummerDesignDay,                        ! Day Type
  0,                                      ! Daylight Saving Time Indicator
  Enthalpy,                               ! Humidity Indicating Type
  ,                                       ! Humidity Indicating Day Schedule Name
  DefaultMultipliers,                     ! Dry-Bulb Temperature Range Modifier Type
  ,                                       ! Dry-Bulb Temperature Range Modifier Schedule Name
  ASHRAETau,                              ! Solar Model Indicator
  ,                                       ! Beam Solar Day Schedule Name
  ,                                       ! Diffuse Solar Day Schedule Name
  0.492,                                  ! ASHRAE Taub {dimensionless}
  1.934;                                  ! ASHRAE Taud {dimensionless}

OS:ComponentData,
  {333b211f-88b3-4a12-ab7f-bdb502db385a}, ! Handle
  Component Data 1,                       ! Name
  {2820b970-502c-4f60-9d38-0b0731fdc73e}, ! UUID
  {bd25a240-7852-4d63-b3ee-35cfbc5aef0b}, ! Version UUID
  1366307812,                             ! Creation Timestamp
  1366307812,                             ! Version Timestamp
  {b392309e-d7ef-4288-b451-aec8058f8eed}; ! Name of Object 1

