
OS:Version,
  {ab642468-17e1-4059-ac84-2c13c9e6bb62}, ! Handle
  0.9.3;                                  ! Version Identifier

OS:SizingPeriod:DesignDay,
  {64790a27-fade-4590-bbc7-97728ebe77c1}, ! Handle
  Southern Pines Awos Ann Clg 2% Condns Enth=>MDB, ! Name
  29.6,                                   ! Maximum Dry-Bulb Temperature {C}
  10.6,                                   ! Daily Dry-Bulb Temperature Range {deltaC}
  72800,                                  ! Humidity Indicating Conditions at Maximum Dry-Bulb {BasedOnField A3}
  99643,                                  ! Barometric Pressure {Pa}
  3.2,                                    ! Wind Speed {m/s}
  260,                                    ! Wind Direction {deg}
  0,                                      ! Sky Clearness
  0,                                      ! Rain Indicator
  0,                                      ! Snow Indicator
  21,                                     ! Day of Month
  7,                                      ! Month
  SummerDesignDay,                        ! Day Type
  0,                                      ! Daylight Saving Time Indicator
  Enthalpy,                               ! Humidity Indicating Type
  ,                                       ! Humidity Indicating Day Schedule Name
  DefaultMultipliers,                     ! Dry-Bulb Temperature Range Modifier Type
  ,                                       ! Dry-Bulb Temperature Range Modifier Schedule Name
  ASHRAETau,                              ! Solar Model Indicator
  ,                                       ! Beam Solar Day Schedule Name
  ,                                       ! Diffuse Solar Day Schedule Name
  0.57,                                   ! ASHRAE Taub {dimensionless}
  1.741;                                  ! ASHRAE Taud {dimensionless}

OS:ComponentData,
  {13713625-f43d-4b59-a754-63411a894d49}, ! Handle
  Component Data 1,                       ! Name
  {2cef63a3-8596-437a-80c1-5ea583204ec9}, ! UUID
  {db3783a0-d098-4e6e-9bc1-2b80e7b2235e}, ! Version UUID
  1366308981,                             ! Creation Timestamp
  1366308981,                             ! Version Timestamp
  {64790a27-fade-4590-bbc7-97728ebe77c1}; ! Name of Object 1

