
OS:Version,
  {7fdadf70-0459-4bbb-ac7d-35692088881b}, ! Handle
  0.9.3;                                  ! Version Identifier

OS:SizingPeriod:DesignDay,
  {b71422e0-42a5-45f3-ba54-4333d76238bc}, ! Handle
  Pipestone  Awos Ann Clg .4% Condns DP=>MDB, ! Name
  27.9,                                   ! Maximum Dry-Bulb Temperature {C}
  10.8,                                   ! Daily Dry-Bulb Temperature Range {deltaC}
  24.9,                                   ! Humidity Indicating Conditions at Maximum Dry-Bulb {BasedOnField A3}
  95129,                                  ! Barometric Pressure {Pa}
  5.7,                                    ! Wind Speed {m/s}
  190,                                    ! Wind Direction {deg}
  0,                                      ! Sky Clearness
  0,                                      ! Rain Indicator
  0,                                      ! Snow Indicator
  21,                                     ! Day of Month
  7,                                      ! Month
  SummerDesignDay,                        ! Day Type
  0,                                      ! Daylight Saving Time Indicator
  Dewpoint,                               ! Humidity Indicating Type
  ,                                       ! Humidity Indicating Day Schedule Name
  DefaultMultipliers,                     ! Dry-Bulb Temperature Range Modifier Type
  ,                                       ! Dry-Bulb Temperature Range Modifier Schedule Name
  ASHRAETau,                              ! Solar Model Indicator
  ,                                       ! Beam Solar Day Schedule Name
  ,                                       ! Diffuse Solar Day Schedule Name
  0.387,                                  ! ASHRAE Taub {dimensionless}
  2.294;                                  ! ASHRAE Taud {dimensionless}

OS:ComponentData,
  {73db3a47-6d17-44c3-b6ab-518d10053000}, ! Handle
  Component Data 1,                       ! Name
  {98cf7d82-3909-49cf-9d55-e6a39c299b4f}, ! UUID
  {e5656069-b5c6-4c32-ab35-535bd7e80ce6}, ! Version UUID
  1366308366,                             ! Creation Timestamp
  1366308366,                             ! Version Timestamp
  {b71422e0-42a5-45f3-ba54-4333d76238bc}; ! Name of Object 1

