
OS:Version,
  {74ea726f-5c0f-49b5-9677-ba6290dcdd68}, ! Handle
  0.9.3;                                  ! Version Identifier

OS:SizingPeriod:DesignDay,
  {26c7e73e-1127-466c-ae7d-308559150ef3}, ! Handle
  Zanesville Municipal Ap Ann Clg .4% Condns Enth=>MDB, ! Name
  30.3,                                   ! Maximum Dry-Bulb Temperature {C}
  11.2,                                   ! Daily Dry-Bulb Temperature Range {deltaC}
  76100,                                  ! Humidity Indicating Conditions at Maximum Dry-Bulb {BasedOnField A3}
  98147,                                  ! Barometric Pressure {Pa}
  4.2,                                    ! Wind Speed {m/s}
  240,                                    ! Wind Direction {deg}
  0,                                      ! Sky Clearness
  0,                                      ! Rain Indicator
  0,                                      ! Snow Indicator
  21,                                     ! Day of Month
  7,                                      ! Month
  SummerDesignDay,                        ! Day Type
  0,                                      ! Daylight Saving Time Indicator
  Enthalpy,                               ! Humidity Indicating Type
  ,                                       ! Humidity Indicating Day Schedule Name
  DefaultMultipliers,                     ! Dry-Bulb Temperature Range Modifier Type
  ,                                       ! Dry-Bulb Temperature Range Modifier Schedule Name
  ASHRAETau,                              ! Solar Model Indicator
  ,                                       ! Beam Solar Day Schedule Name
  ,                                       ! Diffuse Solar Day Schedule Name
  0.485,                                  ! ASHRAE Taub {dimensionless}
  1.937;                                  ! ASHRAE Taud {dimensionless}

OS:ComponentData,
  {dccc4fd0-6b15-43db-8b55-50424f4e06bc}, ! Handle
  Component Data 1,                       ! Name
  {669d0774-d585-4f0d-9499-86eb0235254e}, ! UUID
  {0e79198e-d4f0-4612-af23-7bc74f16b8e5}, ! Version UUID
  1366309875,                             ! Creation Timestamp
  1366309875,                             ! Version Timestamp
  {26c7e73e-1127-466c-ae7d-308559150ef3}; ! Name of Object 1

