
OS:Version,
  {2285127c-8675-46a0-8ade-ebaee7c4f9d2}, ! Handle
  0.9.3;                                  ! Version Identifier

OS:SizingPeriod:DesignDay,
  {5d717d94-2f09-4c2f-b725-50875171dd11}, ! Handle
  Talkeetna State Arpt Ann Clg 2% Condns DP=>MDB, ! Name
  16,                                     ! Maximum Dry-Bulb Temperature {C}
  8.8,                                    ! Daily Dry-Bulb Temperature Range {deltaC}
  12.5,                                   ! Humidity Indicating Conditions at Maximum Dry-Bulb {BasedOnField A3}
  100070,                                 ! Barometric Pressure {Pa}
  2.9,                                    ! Wind Speed {m/s}
  180,                                    ! Wind Direction {deg}
  0,                                      ! Sky Clearness
  0,                                      ! Rain Indicator
  0,                                      ! Snow Indicator
  21,                                     ! Day of Month
  7,                                      ! Month
  SummerDesignDay,                        ! Day Type
  0,                                      ! Daylight Saving Time Indicator
  Dewpoint,                               ! Humidity Indicating Type
  ,                                       ! Humidity Indicating Day Schedule Name
  DefaultMultipliers,                     ! Dry-Bulb Temperature Range Modifier Type
  ,                                       ! Dry-Bulb Temperature Range Modifier Schedule Name
  ASHRAETau,                              ! Solar Model Indicator
  ,                                       ! Beam Solar Day Schedule Name
  ,                                       ! Diffuse Solar Day Schedule Name
  0.379,                                  ! ASHRAE Taub {dimensionless}
  2.177;                                  ! ASHRAE Taud {dimensionless}

OS:ComponentData,
  {e08a08ab-107a-45d0-b69e-31a0ad4eceea}, ! Handle
  Component Data 1,                       ! Name
  {ac483b59-f3e9-4927-a96d-baea7eb571a2}, ! UUID
  {303a8690-efc5-4e99-9a75-c77806774ab5}, ! Version UUID
  1366305588,                             ! Creation Timestamp
  1366305588,                             ! Version Timestamp
  {5d717d94-2f09-4c2f-b725-50875171dd11}; ! Name of Object 1

