
OS:Version,
  {acf953b0-445b-4f12-960d-44d2b120171a}, ! Handle
  0.9.3;                                  ! Version Identifier

OS:SizingPeriod:DesignDay,
  {3c321fc8-16dd-4120-a008-aea8e5277991}, ! Handle
  Marion   Wytheville Ann Clg .4% Condns Enth=>MDB, ! Name
  29.3,                                   ! Maximum Dry-Bulb Temperature {C}
  10.8,                                   ! Daily Dry-Bulb Temperature Range {deltaC}
  71400,                                  ! Humidity Indicating Conditions at Maximum Dry-Bulb {BasedOnField A3}
  92299,                                  ! Barometric Pressure {Pa}
  2.5,                                    ! Wind Speed {m/s}
  290,                                    ! Wind Direction {deg}
  0,                                      ! Sky Clearness
  0,                                      ! Rain Indicator
  0,                                      ! Snow Indicator
  21,                                     ! Day of Month
  7,                                      ! Month
  SummerDesignDay,                        ! Day Type
  0,                                      ! Daylight Saving Time Indicator
  Enthalpy,                               ! Humidity Indicating Type
  ,                                       ! Humidity Indicating Day Schedule Name
  DefaultMultipliers,                     ! Dry-Bulb Temperature Range Modifier Type
  ,                                       ! Dry-Bulb Temperature Range Modifier Schedule Name
  ASHRAETau,                              ! Solar Model Indicator
  ,                                       ! Beam Solar Day Schedule Name
  ,                                       ! Diffuse Solar Day Schedule Name
  0.494,                                  ! ASHRAE Taub {dimensionless}
  1.892;                                  ! ASHRAE Taud {dimensionless}

OS:ComponentData,
  {f1d58aa5-eaa1-4235-b62a-e97cd3dd2cf4}, ! Handle
  Component Data 1,                       ! Name
  {94dc6c00-9def-4a56-9048-684989c9364d}, ! UUID
  {d00d0d09-df6a-4738-9a66-538d4bb4cd29}, ! Version UUID
  1366311102,                             ! Creation Timestamp
  1366311102,                             ! Version Timestamp
  {3c321fc8-16dd-4120-a008-aea8e5277991}; ! Name of Object 1

