
OS:Version,
  {b4cd33e9-833f-48b8-88a8-a1e8d435ab25}, ! Handle
  0.9.3;                                  ! Version Identifier

OS:SizingPeriod:DesignDay,
  {2cc32404-dd3c-4ec1-a436-46244ff01021}, ! Handle
  Oklahoma City Will Rogers Wor Ann Clg 1% Condns DP=>MDB, ! Name
  28,                                     ! Maximum Dry-Bulb Temperature {C}
  11.7,                                   ! Daily Dry-Bulb Temperature Range {deltaC}
  22.8,                                   ! Humidity Indicating Conditions at Maximum Dry-Bulb {BasedOnField A3}
  96634,                                  ! Barometric Pressure {Pa}
  5.5,                                    ! Wind Speed {m/s}
  170,                                    ! Wind Direction {deg}
  0,                                      ! Sky Clearness
  0,                                      ! Rain Indicator
  0,                                      ! Snow Indicator
  21,                                     ! Day of Month
  7,                                      ! Month
  SummerDesignDay,                        ! Day Type
  0,                                      ! Daylight Saving Time Indicator
  Dewpoint,                               ! Humidity Indicating Type
  ,                                       ! Humidity Indicating Day Schedule Name
  DefaultMultipliers,                     ! Dry-Bulb Temperature Range Modifier Type
  ,                                       ! Dry-Bulb Temperature Range Modifier Schedule Name
  ASHRAETau,                              ! Solar Model Indicator
  ,                                       ! Beam Solar Day Schedule Name
  ,                                       ! Diffuse Solar Day Schedule Name
  0.426,                                  ! ASHRAE Taub {dimensionless}
  2.214;                                  ! ASHRAE Taud {dimensionless}

OS:ComponentData,
  {72969b1a-39c5-4644-8dcd-fd9d5f502622}, ! Handle
  Component Data 1,                       ! Name
  {fc706f93-0b4c-429a-87ea-c1a124406b03}, ! UUID
  {18255527-4f9b-41ca-bf0f-f593b4f1e724}, ! Version UUID
  1366309928,                             ! Creation Timestamp
  1366309928,                             ! Version Timestamp
  {2cc32404-dd3c-4ec1-a436-46244ff01021}; ! Name of Object 1

