
OS:Version,
  {a441a5c6-67a3-4169-bf49-8b4a58dfc997}, ! Handle
  0.9.3;                                  ! Version Identifier

OS:SizingPeriod:DesignDay,
  {12d15534-4420-4774-879c-1f4e37bcc2d2}, ! Handle
  Natchez Hardy Awos Ann Htg 99% Condns DB, ! Name
  -2.3,                                   ! Maximum Dry-Bulb Temperature {C}
  0,                                      ! Daily Dry-Bulb Temperature Range {deltaC}
  -2.3,                                   ! Humidity Indicating Conditions at Maximum Dry-Bulb {BasedOnField A3}
  100332,                                 ! Barometric Pressure {Pa}
  2.2,                                    ! Wind Speed {m/s}
  10,                                     ! Wind Direction {deg}
  0,                                      ! Sky Clearness
  0,                                      ! Rain Indicator
  0,                                      ! Snow Indicator
  21,                                     ! Day of Month
  1,                                      ! Month
  WinterDesignDay,                        ! Day Type
  0,                                      ! Daylight Saving Time Indicator
  Wetbulb,                                ! Humidity Indicating Type
  ,                                       ! Humidity Indicating Day Schedule Name
  DefaultMultipliers,                     ! Dry-Bulb Temperature Range Modifier Type
  ,                                       ! Dry-Bulb Temperature Range Modifier Schedule Name
  ASHRAEClearSky;                         ! Solar Model Indicator

OS:ComponentData,
  {aca1acc3-2f4b-47e9-b3f0-5a57d39a56df}, ! Handle
  Component Data 1,                       ! Name
  {771b4cc8-a386-4499-9d32-ad29697c3896}, ! UUID
  {9c3fae16-e8bd-44dc-b3ec-865d3b40c2dd}, ! Version UUID
  1366308683,                             ! Creation Timestamp
  1366308683,                             ! Version Timestamp
  {12d15534-4420-4774-879c-1f4e37bcc2d2}; ! Name of Object 1

