
OS:Version,
  {ce02b13f-5c79-4060-bcb6-3f0afddd7b95}, ! Handle
  0.9.3;                                  ! Version Identifier

OS:SizingPeriod:DesignDay,
  {b658c405-04ea-473b-a8cf-13e42b898935}, ! Handle
  Rochester International Arpt Ann Clg .4% Condns WB=>MDB, ! Name
  29.2,                                   ! Maximum Dry-Bulb Temperature {C}
  10.6,                                   ! Daily Dry-Bulb Temperature Range {deltaC}
  24.9,                                   ! Humidity Indicating Conditions at Maximum Dry-Bulb {BasedOnField A3}
  96634,                                  ! Barometric Pressure {Pa}
  6.7,                                    ! Wind Speed {m/s}
  200,                                    ! Wind Direction {deg}
  0,                                      ! Sky Clearness
  0,                                      ! Rain Indicator
  0,                                      ! Snow Indicator
  21,                                     ! Day of Month
  7,                                      ! Month
  SummerDesignDay,                        ! Day Type
  0,                                      ! Daylight Saving Time Indicator
  Wetbulb,                                ! Humidity Indicating Type
  ,                                       ! Humidity Indicating Day Schedule Name
  DefaultMultipliers,                     ! Dry-Bulb Temperature Range Modifier Type
  ,                                       ! Dry-Bulb Temperature Range Modifier Schedule Name
  ASHRAETau,                              ! Solar Model Indicator
  ,                                       ! Beam Solar Day Schedule Name
  ,                                       ! Diffuse Solar Day Schedule Name
  0.404,                                  ! ASHRAE Taub {dimensionless}
  2.226;                                  ! ASHRAE Taud {dimensionless}

OS:ComponentData,
  {92f72c24-8756-4fda-ac6c-dfb1315022c4}, ! Handle
  Component Data 1,                       ! Name
  {ebe2da71-b0f3-4bf3-a2db-f48cefa6a590}, ! UUID
  {84260ca2-477b-450d-87d4-671f06ef755d}, ! Version UUID
  1366308398,                             ! Creation Timestamp
  1366308398,                             ! Version Timestamp
  {b658c405-04ea-473b-a8cf-13e42b898935}; ! Name of Object 1

