
OS:Version,
  {bd18c8cc-93bc-446e-80de-47367944e8cd}, ! Handle
  0.9.3;                                  ! Version Identifier

OS:SizingPeriod:DesignDay,
  {7215b968-7826-439f-b061-368694f5dfdd}, ! Handle
  Sanford Muni  Awos Ann Clg .4% Condns WB=>MDB, ! Name
  28.9,                                   ! Maximum Dry-Bulb Temperature {C}
  12.6,                                   ! Daily Dry-Bulb Temperature Range {deltaC}
  23.2,                                   ! Humidity Indicating Conditions at Maximum Dry-Bulb {BasedOnField A3}
  100439,                                 ! Barometric Pressure {Pa}
  3.9,                                    ! Wind Speed {m/s}
  230,                                    ! Wind Direction {deg}
  0,                                      ! Sky Clearness
  0,                                      ! Rain Indicator
  0,                                      ! Snow Indicator
  21,                                     ! Day of Month
  7,                                      ! Month
  SummerDesignDay,                        ! Day Type
  0,                                      ! Daylight Saving Time Indicator
  Wetbulb,                                ! Humidity Indicating Type
  ,                                       ! Humidity Indicating Day Schedule Name
  DefaultMultipliers,                     ! Dry-Bulb Temperature Range Modifier Type
  ,                                       ! Dry-Bulb Temperature Range Modifier Schedule Name
  ASHRAETau,                              ! Solar Model Indicator
  ,                                       ! Beam Solar Day Schedule Name
  ,                                       ! Diffuse Solar Day Schedule Name
  0.471,                                  ! ASHRAE Taub {dimensionless}
  1.98;                                   ! ASHRAE Taud {dimensionless}

OS:ComponentData,
  {573b61ce-8c7b-4192-9f8d-0c8658c818df}, ! Handle
  Component Data 1,                       ! Name
  {9e7aff4f-af07-42ef-95a0-97d603de7f5e}, ! UUID
  {8869ec00-1dd2-4a06-9612-349f96760967}, ! Version UUID
  1366307926,                             ! Creation Timestamp
  1366307926,                             ! Version Timestamp
  {7215b968-7826-439f-b061-368694f5dfdd}; ! Name of Object 1

