
OS:Version,
  {1904716a-4aed-4bab-aad0-c45c9faa5cf5}, ! Handle
  0.9.3;                                  ! Version Identifier

OS:SizingPeriod:DesignDay,
  {8ca50fc1-67ae-4b50-9fcb-838333a20ae4}, ! Handle
  Peoria Greater Peoria Ap Ann Htg 99% Condns DB, ! Name
  -16.5,                                  ! Maximum Dry-Bulb Temperature {C}
  0,                                      ! Daily Dry-Bulb Temperature Range {deltaC}
  -16.5,                                  ! Humidity Indicating Conditions at Maximum Dry-Bulb {BasedOnField A3}
  98957,                                  ! Barometric Pressure {Pa}
  4,                                      ! Wind Speed {m/s}
  280,                                    ! Wind Direction {deg}
  0,                                      ! Sky Clearness
  0,                                      ! Rain Indicator
  0,                                      ! Snow Indicator
  21,                                     ! Day of Month
  1,                                      ! Month
  WinterDesignDay,                        ! Day Type
  0,                                      ! Daylight Saving Time Indicator
  Wetbulb,                                ! Humidity Indicating Type
  ,                                       ! Humidity Indicating Day Schedule Name
  DefaultMultipliers,                     ! Dry-Bulb Temperature Range Modifier Type
  ,                                       ! Dry-Bulb Temperature Range Modifier Schedule Name
  ASHRAEClearSky;                         ! Solar Model Indicator

OS:ComponentData,
  {cb883fe8-5e50-49c6-b2be-e4ca92136a06}, ! Handle
  Component Data 1,                       ! Name
  {763aced7-29e2-4c9e-a5ef-229bb524c8ec}, ! UUID
  {dc2a20dc-4b99-4fe3-b4d1-85cbbdc5a1a1}, ! Version UUID
  1366307379,                             ! Creation Timestamp
  1366307379,                             ! Version Timestamp
  {8ca50fc1-67ae-4b50-9fcb-838333a20ae4}; ! Name of Object 1

