
OS:Version,
  {05949d4c-48a1-4a2e-9226-da3c7d0f2061}, ! Handle
  0.9.3;                                  ! Version Identifier

OS:SizingPeriod:DesignDay,
  {24797086-8489-4140-8bd6-6facdf381674}, ! Handle
  Parkersburg Wood County Ap Ann Clg 2% Condns DB=>MWB, ! Name
  29.9,                                   ! Maximum Dry-Bulb Temperature {C}
  10.8,                                   ! Daily Dry-Bulb Temperature Range {deltaC}
  22.2,                                   ! Humidity Indicating Conditions at Maximum Dry-Bulb {BasedOnField A3}
  98322,                                  ! Barometric Pressure {Pa}
  3.4,                                    ! Wind Speed {m/s}
  250,                                    ! Wind Direction {deg}
  0,                                      ! Sky Clearness
  0,                                      ! Rain Indicator
  0,                                      ! Snow Indicator
  21,                                     ! Day of Month
  7,                                      ! Month
  SummerDesignDay,                        ! Day Type
  0,                                      ! Daylight Saving Time Indicator
  Wetbulb,                                ! Humidity Indicating Type
  ,                                       ! Humidity Indicating Day Schedule Name
  DefaultMultipliers,                     ! Dry-Bulb Temperature Range Modifier Type
  ,                                       ! Dry-Bulb Temperature Range Modifier Schedule Name
  ASHRAETau,                              ! Solar Model Indicator
  ,                                       ! Beam Solar Day Schedule Name
  ,                                       ! Diffuse Solar Day Schedule Name
  0.5,                                    ! ASHRAE Taub {dimensionless}
  1.892;                                  ! ASHRAE Taud {dimensionless}

OS:ComponentData,
  {43db3dba-f225-4e4a-bf49-63875335c18e}, ! Handle
  Component Data 1,                       ! Name
  {7291bfe6-8cb8-4423-a3e7-5e4ee9173382}, ! UUID
  {2c242f6d-096d-419e-b88a-ea881eff52c2}, ! Version UUID
  1366311676,                             ! Creation Timestamp
  1366311676,                             ! Version Timestamp
  {24797086-8489-4140-8bd6-6facdf381674}; ! Name of Object 1

