
OS:Version,
  {5408354b-33bf-4543-88b1-ccc1f93456df}, ! Handle
  0.9.3;                                  ! Version Identifier

OS:SizingPeriod:DesignDay,
  {678106c9-18f2-4ef2-bb2b-91b5b2742113}, ! Handle
  Springfield Capital Ap Ann Htg Wind 99.6% Condns WS=>MCDB, ! Name
  0.1,                                    ! Maximum Dry-Bulb Temperature {C}
  0,                                      ! Daily Dry-Bulb Temperature Range {deltaC}
  0.1,                                    ! Humidity Indicating Conditions at Maximum Dry-Bulb {BasedOnField A3}
  99193,                                  ! Barometric Pressure {Pa}
  12.4,                                   ! Wind Speed {m/s}
  270,                                    ! Wind Direction {deg}
  0,                                      ! Sky Clearness
  0,                                      ! Rain Indicator
  0,                                      ! Snow Indicator
  21,                                     ! Day of Month
  1,                                      ! Month
  WinterDesignDay,                        ! Day Type
  0,                                      ! Daylight Saving Time Indicator
  Wetbulb,                                ! Humidity Indicating Type
  ,                                       ! Humidity Indicating Day Schedule Name
  DefaultMultipliers,                     ! Dry-Bulb Temperature Range Modifier Type
  ,                                       ! Dry-Bulb Temperature Range Modifier Schedule Name
  ASHRAEClearSky;                         ! Solar Model Indicator

OS:ComponentData,
  {97127492-f42f-4977-aa73-3dd34bc45045}, ! Handle
  Component Data 1,                       ! Name
  {95443d38-5611-4530-a0cd-d164fe0b3554}, ! UUID
  {4a450cbe-028e-4060-9552-9e61ee7dad97}, ! Version UUID
  1366307404,                             ! Creation Timestamp
  1366307404,                             ! Version Timestamp
  {678106c9-18f2-4ef2-bb2b-91b5b2742113}; ! Name of Object 1

