
OS:Version,
  {290892ab-d1c8-457d-9889-e5851ccaee15}, ! Handle
  0.9.3;                                  ! Version Identifier

OS:SizingPeriod:DesignDay,
  {fc2e7768-2c48-4aed-bbf3-64820b833e19}, ! Handle
  Trenton Mercer County Ap Ann Clg 2% Condns DP=>MDB, ! Name
  26.9,                                   ! Maximum Dry-Bulb Temperature {C}
  10.5,                                   ! Daily Dry-Bulb Temperature Range {deltaC}
  22.3,                                   ! Humidity Indicating Conditions at Maximum Dry-Bulb {BasedOnField A3}
  100547,                                 ! Barometric Pressure {Pa}
  4.7,                                    ! Wind Speed {m/s}
  250,                                    ! Wind Direction {deg}
  0,                                      ! Sky Clearness
  0,                                      ! Rain Indicator
  0,                                      ! Snow Indicator
  21,                                     ! Day of Month
  7,                                      ! Month
  SummerDesignDay,                        ! Day Type
  0,                                      ! Daylight Saving Time Indicator
  Dewpoint,                               ! Humidity Indicating Type
  ,                                       ! Humidity Indicating Day Schedule Name
  DefaultMultipliers,                     ! Dry-Bulb Temperature Range Modifier Type
  ,                                       ! Dry-Bulb Temperature Range Modifier Schedule Name
  ASHRAETau,                              ! Solar Model Indicator
  ,                                       ! Beam Solar Day Schedule Name
  ,                                       ! Diffuse Solar Day Schedule Name
  0.527,                                  ! ASHRAE Taub {dimensionless}
  1.83;                                   ! ASHRAE Taud {dimensionless}

OS:ComponentData,
  {b870545e-623d-41cf-994e-0c6204761b9d}, ! Handle
  Component Data 1,                       ! Name
  {ea88c501-9372-4cb4-b130-09f7fb2da066}, ! UUID
  {1ced7c5d-3e45-487a-bf63-b352ea0dde35}, ! Version UUID
  1366309352,                             ! Creation Timestamp
  1366309352,                             ! Version Timestamp
  {fc2e7768-2c48-4aed-bbf3-64820b833e19}; ! Name of Object 1

