
OS:Version,
  {af54aa3c-eb15-4bf0-9384-1614748937cd}, ! Handle
  0.9.3;                                  ! Version Identifier

OS:SizingPeriod:DesignDay,
  {d0d2247c-0171-409c-b28b-5515a239746c}, ! Handle
  San Luis Co Rgnl Ann Clg 1% Condns WB=>MDB, ! Name
  26.7,                                   ! Maximum Dry-Bulb Temperature {C}
  12.2,                                   ! Daily Dry-Bulb Temperature Range {deltaC}
  18.8,                                   ! Humidity Indicating Conditions at Maximum Dry-Bulb {BasedOnField A3}
  100535,                                 ! Barometric Pressure {Pa}
  4.9,                                    ! Wind Speed {m/s}
  300,                                    ! Wind Direction {deg}
  0,                                      ! Sky Clearness
  0,                                      ! Rain Indicator
  0,                                      ! Snow Indicator
  21,                                     ! Day of Month
  8,                                      ! Month
  SummerDesignDay,                        ! Day Type
  0,                                      ! Daylight Saving Time Indicator
  Wetbulb,                                ! Humidity Indicating Type
  ,                                       ! Humidity Indicating Day Schedule Name
  DefaultMultipliers,                     ! Dry-Bulb Temperature Range Modifier Type
  ,                                       ! Dry-Bulb Temperature Range Modifier Schedule Name
  ASHRAETau,                              ! Solar Model Indicator
  ,                                       ! Beam Solar Day Schedule Name
  ,                                       ! Diffuse Solar Day Schedule Name
  0.375,                                  ! ASHRAE Taub {dimensionless}
  2.406;                                  ! ASHRAE Taud {dimensionless}

OS:ComponentData,
  {815482af-0603-4c92-9155-7831dcfcc9ca}, ! Handle
  Component Data 1,                       ! Name
  {11baaabe-0f8d-45d5-91f2-fccda139d704}, ! UUID
  {64d44045-5078-4194-979e-a5bfcd58f8e7}, ! Version UUID
  1366306601,                             ! Creation Timestamp
  1366306601,                             ! Version Timestamp
  {d0d2247c-0171-409c-b28b-5515a239746c}; ! Name of Object 1

