
OS:Version,
  {35be34aa-1f09-439c-8a5f-3b06dc5e0ee6}, ! Handle
  0.9.3;                                  ! Version Identifier

OS:SizingPeriod:DesignDay,
  {6acdcfcc-48a8-4ae3-a0cb-63b0bf159112}, ! Handle
  ROCK_SPRINGS Ann Clg .4% Condns Enth=>MDB, ! Name
  25.2,                                   ! Maximum Dry-Bulb Temperature {C}
  15.3,                                   ! Daily Dry-Bulb Temperature Range {deltaC}
  48200,                                  ! Humidity Indicating Conditions at Maximum Dry-Bulb {BasedOnField A3}
  78944,                                  ! Barometric Pressure {Pa}
  5.3,                                    ! Wind Speed {m/s}
  260,                                    ! Wind Direction {deg}
  0,                                      ! Sky Clearness
  0,                                      ! Rain Indicator
  0,                                      ! Snow Indicator
  21,                                     ! Day of Month
  7,                                      ! Month
  SummerDesignDay,                        ! Day Type
  0,                                      ! Daylight Saving Time Indicator
  Enthalpy,                               ! Humidity Indicating Type
  ,                                       ! Humidity Indicating Day Schedule Name
  DefaultMultipliers,                     ! Dry-Bulb Temperature Range Modifier Type
  ,                                       ! Dry-Bulb Temperature Range Modifier Schedule Name
  ASHRAETau,                              ! Solar Model Indicator
  ,                                       ! Beam Solar Day Schedule Name
  ,                                       ! Diffuse Solar Day Schedule Name
  0.402,                                  ! ASHRAE Taub {dimensionless}
  1.99;                                   ! ASHRAE Taud {dimensionless}

OS:ComponentData,
  {6efb8d91-bd14-45e7-ab60-1a2bcaa9a1c5}, ! Handle
  Component Data 1,                       ! Name
  {a0b921f1-6eb0-467a-bb9e-cf4abc32c585}, ! UUID
  {7c854ed4-dd9f-4761-8a42-a2fcd299087e}, ! Version UUID
  1366311771,                             ! Creation Timestamp
  1366311771,                             ! Version Timestamp
  {6acdcfcc-48a8-4ae3-a0cb-63b0bf159112}; ! Name of Object 1

