
OS:Version,
  {14d62f1d-627d-4dd5-8e77-1aebf5dd1c7e}, ! Handle
  0.9.3;                                  ! Version Identifier

OS:SizingPeriod:DesignDay,
  {4a13e63a-9d1e-407b-81cf-bbc85ca7ee17}, ! Handle
  Springfield Regional Arpt Ann Hum_n 99% Condns DP=>MCDB, ! Name
  -10.2,                                  ! Maximum Dry-Bulb Temperature {C}
  0,                                      ! Daily Dry-Bulb Temperature Range {deltaC}
  -16.8,                                  ! Humidity Indicating Conditions at Maximum Dry-Bulb {BasedOnField A3}
  96796,                                  ! Barometric Pressure {Pa}
  3.8,                                    ! Wind Speed {m/s}
  350,                                    ! Wind Direction {deg}
  0,                                      ! Sky Clearness
  0,                                      ! Rain Indicator
  0,                                      ! Snow Indicator
  21,                                     ! Day of Month
  1,                                      ! Month
  WinterDesignDay,                        ! Day Type
  0,                                      ! Daylight Saving Time Indicator
  Dewpoint,                               ! Humidity Indicating Type
  ,                                       ! Humidity Indicating Day Schedule Name
  DefaultMultipliers,                     ! Dry-Bulb Temperature Range Modifier Type
  ,                                       ! Dry-Bulb Temperature Range Modifier Schedule Name
  ASHRAEClearSky;                         ! Solar Model Indicator

OS:ComponentData,
  {d92e654a-7c4b-4e3e-9b31-039e2f014427}, ! Handle
  Component Data 1,                       ! Name
  {5016b6fb-6cfc-49f2-baf5-c9aee6722977}, ! UUID
  {af575e0e-3d58-4543-b44e-ce40722215ba}, ! Version UUID
  1366308571,                             ! Creation Timestamp
  1366308571,                             ! Version Timestamp
  {4a13e63a-9d1e-407b-81cf-bbc85ca7ee17}; ! Name of Object 1

