
OS:Version,
  {c9ef39b0-931e-4313-9802-2d4d98665e07}, ! Handle
  0.9.3;                                  ! Version Identifier

OS:SizingPeriod:DesignDay,
  {6f2c31d0-b792-4120-bcf1-38e4d22f258b}, ! Handle
  Point Mugu Nf Ann Clg 1% Condns DP=>MDB, ! Name
  22.4,                                   ! Maximum Dry-Bulb Temperature {C}
  7.8,                                    ! Daily Dry-Bulb Temperature Range {deltaC}
  18.9,                                   ! Humidity Indicating Conditions at Maximum Dry-Bulb {BasedOnField A3}
  101289,                                 ! Barometric Pressure {Pa}
  5.2,                                    ! Wind Speed {m/s}
  50,                                     ! Wind Direction {deg}
  0,                                      ! Sky Clearness
  0,                                      ! Rain Indicator
  0,                                      ! Snow Indicator
  21,                                     ! Day of Month
  8,                                      ! Month
  SummerDesignDay,                        ! Day Type
  0,                                      ! Daylight Saving Time Indicator
  Dewpoint,                               ! Humidity Indicating Type
  ,                                       ! Humidity Indicating Day Schedule Name
  DefaultMultipliers,                     ! Dry-Bulb Temperature Range Modifier Type
  ,                                       ! Dry-Bulb Temperature Range Modifier Schedule Name
  ASHRAETau,                              ! Solar Model Indicator
  ,                                       ! Beam Solar Day Schedule Name
  ,                                       ! Diffuse Solar Day Schedule Name
  0.425,                                  ! ASHRAE Taub {dimensionless}
  2.2;                                    ! ASHRAE Taud {dimensionless}

OS:ComponentData,
  {41499773-25fc-415c-8ade-9d35d1515048}, ! Handle
  Component Data 1,                       ! Name
  {6bc43f28-f30e-4115-a74f-34e060cdf840}, ! UUID
  {52b0fb67-d201-4829-81ae-04e0875d4162}, ! Version UUID
  1366306539,                             ! Creation Timestamp
  1366306539,                             ! Version Timestamp
  {6f2c31d0-b792-4120-bcf1-38e4d22f258b}; ! Name of Object 1

