
OS:Version,
  {6c31d3a5-0721-4d31-a1dc-976baa273d82}, ! Handle
  0.9.3;                                  ! Version Identifier

OS:SizingPeriod:DesignDay,
  {06bdb61a-35f0-4754-a660-24ddacfb8125}, ! Handle
  Salem Mcnary Field Ann Clg 2% Condns WB=>MDB, ! Name
  27.7,                                   ! Maximum Dry-Bulb Temperature {C}
  15.4,                                   ! Daily Dry-Bulb Temperature Range {deltaC}
  18.6,                                   ! Humidity Indicating Conditions at Maximum Dry-Bulb {BasedOnField A3}
  100606,                                 ! Barometric Pressure {Pa}
  4.3,                                    ! Wind Speed {m/s}
  0,                                      ! Wind Direction {deg}
  0,                                      ! Sky Clearness
  0,                                      ! Rain Indicator
  0,                                      ! Snow Indicator
  21,                                     ! Day of Month
  8,                                      ! Month
  SummerDesignDay,                        ! Day Type
  0,                                      ! Daylight Saving Time Indicator
  Wetbulb,                                ! Humidity Indicating Type
  ,                                       ! Humidity Indicating Day Schedule Name
  DefaultMultipliers,                     ! Dry-Bulb Temperature Range Modifier Type
  ,                                       ! Dry-Bulb Temperature Range Modifier Schedule Name
  ASHRAETau,                              ! Solar Model Indicator
  ,                                       ! Beam Solar Day Schedule Name
  ,                                       ! Diffuse Solar Day Schedule Name
  0.355,                                  ! ASHRAE Taub {dimensionless}
  2.578;                                  ! ASHRAE Taud {dimensionless}

OS:ComponentData,
  {c6884631-c94e-4d26-bd1a-41ec7d92e0cf}, ! Handle
  Component Data 1,                       ! Name
  {51877e15-10b1-487b-bf36-10126906414a}, ! UUID
  {7aee1d9c-ac70-4d99-b478-8abec704fe9c}, ! Version UUID
  1366310113,                             ! Creation Timestamp
  1366310113,                             ! Version Timestamp
  {06bdb61a-35f0-4754-a660-24ddacfb8125}; ! Name of Object 1

