
OS:Version,
  {1c9f6e90-bf00-4ab6-a650-0b2ea3fff51d}, ! Handle
  0.9.3;                                  ! Version Identifier

OS:SizingPeriod:DesignDay,
  {7e7c96a6-71ee-4d6f-8377-040bb850f0e8}, ! Handle
  Mercury Desert Rock Ap  Surfr Ann Hum_n 99.6% Condns DP=>MCDB, ! Name
  4,                                      ! Maximum Dry-Bulb Temperature {C}
  0,                                      ! Daily Dry-Bulb Temperature Range {deltaC}
  -20.3,                                  ! Humidity Indicating Conditions at Maximum Dry-Bulb {BasedOnField A3}
  90585,                                  ! Barometric Pressure {Pa}
  3,                                      ! Wind Speed {m/s}
  30,                                     ! Wind Direction {deg}
  0,                                      ! Sky Clearness
  0,                                      ! Rain Indicator
  0,                                      ! Snow Indicator
  21,                                     ! Day of Month
  12,                                     ! Month
  WinterDesignDay,                        ! Day Type
  0,                                      ! Daylight Saving Time Indicator
  Dewpoint,                               ! Humidity Indicating Type
  ,                                       ! Humidity Indicating Day Schedule Name
  DefaultMultipliers,                     ! Dry-Bulb Temperature Range Modifier Type
  ,                                       ! Dry-Bulb Temperature Range Modifier Schedule Name
  ASHRAEClearSky;                         ! Solar Model Indicator

OS:ComponentData,
  {f2d35338-5a0a-43fa-8b52-ff9c26e26db6}, ! Handle
  Component Data 1,                       ! Name
  {de3abbd9-9cc8-4a83-81f7-30c4669b8a3d}, ! UUID
  {6cb1b7c6-679f-411f-931e-2c13ba317dab}, ! Version UUID
  1366309521,                             ! Creation Timestamp
  1366309521,                             ! Version Timestamp
  {7e7c96a6-71ee-4d6f-8377-040bb850f0e8}; ! Name of Object 1

