
OS:Version,
  {e3221f15-3c1a-43a8-96e9-90b0f41ce8d3}, ! Handle
  0.9.3;                                  ! Version Identifier

OS:SizingPeriod:DesignDay,
  {cc7eb2ac-b09c-433e-865c-d1cfc46ea802}, ! Handle
  MUSKEGON Ann Clg 1% Condns Enth=>MDB,   ! Name
  27,                                     ! Maximum Dry-Bulb Temperature {C}
  10,                                     ! Daily Dry-Bulb Temperature Range {deltaC}
  70300,                                  ! Humidity Indicating Conditions at Maximum Dry-Bulb {BasedOnField A3}
  99051,                                  ! Barometric Pressure {Pa}
  5.4,                                    ! Wind Speed {m/s}
  200,                                    ! Wind Direction {deg}
  0,                                      ! Sky Clearness
  0,                                      ! Rain Indicator
  0,                                      ! Snow Indicator
  21,                                     ! Day of Month
  7,                                      ! Month
  SummerDesignDay,                        ! Day Type
  0,                                      ! Daylight Saving Time Indicator
  Enthalpy,                               ! Humidity Indicating Type
  ,                                       ! Humidity Indicating Day Schedule Name
  DefaultMultipliers,                     ! Dry-Bulb Temperature Range Modifier Type
  ,                                       ! Dry-Bulb Temperature Range Modifier Schedule Name
  ASHRAETau,                              ! Solar Model Indicator
  ,                                       ! Beam Solar Day Schedule Name
  ,                                       ! Diffuse Solar Day Schedule Name
  0.436,                                  ! ASHRAE Taub {dimensionless}
  2.131;                                  ! ASHRAE Taud {dimensionless}

OS:ComponentData,
  {93f24ff6-1d91-40b9-b747-558419da2d88}, ! Handle
  Component Data 1,                       ! Name
  {e7079001-6311-4b6e-96fb-fdae517565ba}, ! UUID
  {c7f948fa-6e24-4cd9-8bc3-c9853d37193b}, ! Version UUID
  1366308073,                             ! Creation Timestamp
  1366308073,                             ! Version Timestamp
  {cc7eb2ac-b09c-433e-865c-d1cfc46ea802}; ! Name of Object 1

