
OS:Version,
  {14d9997b-a479-4862-b007-cae36f6d0d93}, ! Handle
  0.9.3;                                  ! Version Identifier

OS:SizingPeriod:DesignDay,
  {a8d04cee-d92b-435f-af9a-6d0e953a24e3}, ! Handle
  Walnut Ridge  Awos Ann Clg 2% Condns DP=>MDB, ! Name
  28.6,                                   ! Maximum Dry-Bulb Temperature {C}
  9.7,                                    ! Daily Dry-Bulb Temperature Range {deltaC}
  23.7,                                   ! Humidity Indicating Conditions at Maximum Dry-Bulb {BasedOnField A3}
  100332,                                 ! Barometric Pressure {Pa}
  4,                                      ! Wind Speed {m/s}
  180,                                    ! Wind Direction {deg}
  0,                                      ! Sky Clearness
  0,                                      ! Rain Indicator
  0,                                      ! Snow Indicator
  21,                                     ! Day of Month
  7,                                      ! Month
  SummerDesignDay,                        ! Day Type
  0,                                      ! Daylight Saving Time Indicator
  Dewpoint,                               ! Humidity Indicating Type
  ,                                       ! Humidity Indicating Day Schedule Name
  DefaultMultipliers,                     ! Dry-Bulb Temperature Range Modifier Type
  ,                                       ! Dry-Bulb Temperature Range Modifier Schedule Name
  ASHRAETau,                              ! Solar Model Indicator
  ,                                       ! Beam Solar Day Schedule Name
  ,                                       ! Diffuse Solar Day Schedule Name
  0.495,                                  ! ASHRAE Taub {dimensionless}
  1.945;                                  ! ASHRAE Taud {dimensionless}

OS:ComponentData,
  {453dc6a6-6700-4dfd-a7e9-c991bfecbd7a}, ! Handle
  Component Data 1,                       ! Name
  {2d79b02c-3a56-4bc3-a1c5-b1eb9e3e3b1f}, ! UUID
  {0c8493b2-14c4-4ac8-8224-4d1e0971f9f2}, ! Version UUID
  1366306259,                             ! Creation Timestamp
  1366306259,                             ! Version Timestamp
  {a8d04cee-d92b-435f-af9a-6d0e953a24e3}; ! Name of Object 1

