
OS:Version,
  {daecb37a-c78b-4c70-9f89-e7fb1ffead84}, ! Handle
  0.9.3;                                  ! Version Identifier

OS:SizingPeriod:DesignDay,
  {9282e55e-4455-4a39-9307-6c9211ce4152}, ! Handle
  ROCKFORD Ann Htg Wind 99.6% Condns WS=>MCDB, ! Name
  -5.5,                                   ! Maximum Dry-Bulb Temperature {C}
  0,                                      ! Daily Dry-Bulb Temperature Range {deltaC}
  -5.5,                                   ! Humidity Indicating Conditions at Maximum Dry-Bulb {BasedOnField A3}
  98698,                                  ! Barometric Pressure {Pa}
  12.1,                                   ! Wind Speed {m/s}
  290,                                    ! Wind Direction {deg}
  0,                                      ! Sky Clearness
  0,                                      ! Rain Indicator
  0,                                      ! Snow Indicator
  21,                                     ! Day of Month
  1,                                      ! Month
  WinterDesignDay,                        ! Day Type
  0,                                      ! Daylight Saving Time Indicator
  Wetbulb,                                ! Humidity Indicating Type
  ,                                       ! Humidity Indicating Day Schedule Name
  DefaultMultipliers,                     ! Dry-Bulb Temperature Range Modifier Type
  ,                                       ! Dry-Bulb Temperature Range Modifier Schedule Name
  ASHRAEClearSky;                         ! Solar Model Indicator

OS:ComponentData,
  {28636a3f-7d57-4a3d-97c8-cb60529c88d5}, ! Handle
  Component Data 1,                       ! Name
  {36e4396f-1e2d-44f6-a684-160788c64e2f}, ! UUID
  {97ed00e0-ad4a-4f91-95b4-ea33a2025806}, ! Version UUID
  1366307395,                             ! Creation Timestamp
  1366307395,                             ! Version Timestamp
  {9282e55e-4455-4a39-9307-6c9211ce4152}; ! Name of Object 1

