
OS:Version,
  {499b5528-92fb-4e91-9145-e8f1f7283ac8}, ! Handle
  0.9.3;                                  ! Version Identifier

OS:SizingPeriod:DesignDay,
  {459c3b42-5b58-4347-827f-142507f4fb45}, ! Handle
  Modesto City County Ap Ann Clg 2% Condns DB=>MWB, ! Name
  35.2,                                   ! Maximum Dry-Bulb Temperature {C}
  16.7,                                   ! Daily Dry-Bulb Temperature Range {deltaC}
  19.9,                                   ! Humidity Indicating Conditions at Maximum Dry-Bulb {BasedOnField A3}
  100965,                                 ! Barometric Pressure {Pa}
  4.5,                                    ! Wind Speed {m/s}
  320,                                    ! Wind Direction {deg}
  0,                                      ! Sky Clearness
  0,                                      ! Rain Indicator
  0,                                      ! Snow Indicator
  21,                                     ! Day of Month
  7,                                      ! Month
  SummerDesignDay,                        ! Day Type
  0,                                      ! Daylight Saving Time Indicator
  Wetbulb,                                ! Humidity Indicating Type
  ,                                       ! Humidity Indicating Day Schedule Name
  DefaultMultipliers,                     ! Dry-Bulb Temperature Range Modifier Type
  ,                                       ! Dry-Bulb Temperature Range Modifier Schedule Name
  ASHRAETau,                              ! Solar Model Indicator
  ,                                       ! Beam Solar Day Schedule Name
  ,                                       ! Diffuse Solar Day Schedule Name
  0.392,                                  ! ASHRAE Taub {dimensionless}
  2.306;                                  ! ASHRAE Taud {dimensionless}

OS:ComponentData,
  {bdd5b14d-c6df-4d3a-baa3-9fb0ec1df2dc}, ! Handle
  Component Data 1,                       ! Name
  {99292557-7735-4456-9ddf-c868bd95a05b}, ! UUID
  {0aadf77b-acee-42bf-8828-838d4fbd7a1e}, ! Version UUID
  1366306490,                             ! Creation Timestamp
  1366306490,                             ! Version Timestamp
  {459c3b42-5b58-4347-827f-142507f4fb45}; ! Name of Object 1

