
OS:Version,
  {4f9fba59-9df6-4121-ac45-91bc2fa992f3}, ! Handle
  0.9.3;                                  ! Version Identifier

OS:SizingPeriod:DesignDay,
  {dd4eb414-00d2-4c27-9485-f70dce8cf7f1}, ! Handle
  Rochester Ann Clg 1% Condns WB=>MDB,    ! Name
  27.7,                                   ! Maximum Dry-Bulb Temperature {C}
  10.6,                                   ! Daily Dry-Bulb Temperature Range {deltaC}
  23.7,                                   ! Humidity Indicating Conditions at Maximum Dry-Bulb {BasedOnField A3}
  96588,                                  ! Barometric Pressure {Pa}
  6.7,                                    ! Wind Speed {m/s}
  200,                                    ! Wind Direction {deg}
  0,                                      ! Sky Clearness
  0,                                      ! Rain Indicator
  0,                                      ! Snow Indicator
  21,                                     ! Day of Month
  7,                                      ! Month
  SummerDesignDay,                        ! Day Type
  0,                                      ! Daylight Saving Time Indicator
  Wetbulb,                                ! Humidity Indicating Type
  ,                                       ! Humidity Indicating Day Schedule Name
  DefaultMultipliers,                     ! Dry-Bulb Temperature Range Modifier Type
  ,                                       ! Dry-Bulb Temperature Range Modifier Schedule Name
  ASHRAETau,                              ! Solar Model Indicator
  ,                                       ! Beam Solar Day Schedule Name
  ,                                       ! Diffuse Solar Day Schedule Name
  0.404,                                  ! ASHRAE Taub {dimensionless}
  2.226;                                  ! ASHRAE Taud {dimensionless}

OS:ComponentData,
  {c6aaf637-3e69-4648-9adc-b18634c5a408}, ! Handle
  Component Data 1,                       ! Name
  {4b2cd43c-9418-4877-a936-ca664cb8ed37}, ! UUID
  {cdc16bd1-8adb-4d80-a28c-813666d6f959}, ! Version UUID
  1366308393,                             ! Creation Timestamp
  1366308393,                             ! Version Timestamp
  {dd4eb414-00d2-4c27-9485-f70dce8cf7f1}; ! Name of Object 1

