
OS:Version,
  {89a1dc30-2c69-45a7-873f-a6814c82c61d}, ! Handle
  0.9.3;                                  ! Version Identifier

OS:SizingPeriod:DesignDay,
  {459ba870-7eb8-499a-b40e-10e4ec5e8a22}, ! Handle
  PIERRE Ann Hum_n 99.6% Condns DP=>MCDB, ! Name
  -23.5,                                  ! Maximum Dry-Bulb Temperature {C}
  0,                                      ! Daily Dry-Bulb Temperature Range {deltaC}
  -29,                                    ! Humidity Indicating Conditions at Maximum Dry-Bulb {BasedOnField A3}
  95164,                                  ! Barometric Pressure {Pa}
  4.6,                                    ! Wind Speed {m/s}
  310,                                    ! Wind Direction {deg}
  0,                                      ! Sky Clearness
  0,                                      ! Rain Indicator
  0,                                      ! Snow Indicator
  21,                                     ! Day of Month
  1,                                      ! Month
  WinterDesignDay,                        ! Day Type
  0,                                      ! Daylight Saving Time Indicator
  Dewpoint,                               ! Humidity Indicating Type
  ,                                       ! Humidity Indicating Day Schedule Name
  DefaultMultipliers,                     ! Dry-Bulb Temperature Range Modifier Type
  ,                                       ! Dry-Bulb Temperature Range Modifier Schedule Name
  ASHRAEClearSky;                         ! Solar Model Indicator

OS:ComponentData,
  {d6a9f3a2-c3aa-4892-8710-f22ee472d299}, ! Handle
  Component Data 1,                       ! Name
  {37db9f56-a282-4c9b-8fdd-58fbb2757bad}, ! UUID
  {2c328469-301a-41fb-b687-11738daa4f68}, ! Version UUID
  1366310426,                             ! Creation Timestamp
  1366310426,                             ! Version Timestamp
  {459ba870-7eb8-499a-b40e-10e4ec5e8a22}; ! Name of Object 1

