
OS:Version,
  {a34971dd-4567-4bcf-91ad-6de42e928cc8}, ! Handle
  0.9.3;                                  ! Version Identifier

OS:SizingPeriod:DesignDay,
  {633e0cc1-d21a-40a5-96b7-27ba58e01bd1}, ! Handle
  Otis Angb Ann Htg Wind 99.6% Condns WS=>MCDB, ! Name
  -1.8,                                   ! Maximum Dry-Bulb Temperature {C}
  0,                                      ! Daily Dry-Bulb Temperature Range {deltaC}
  -1.8,                                   ! Humidity Indicating Conditions at Maximum Dry-Bulb {BasedOnField A3}
  100845,                                 ! Barometric Pressure {Pa}
  14.3,                                   ! Wind Speed {m/s}
  300,                                    ! Wind Direction {deg}
  0,                                      ! Sky Clearness
  0,                                      ! Rain Indicator
  0,                                      ! Snow Indicator
  21,                                     ! Day of Month
  1,                                      ! Month
  WinterDesignDay,                        ! Day Type
  0,                                      ! Daylight Saving Time Indicator
  Wetbulb,                                ! Humidity Indicating Type
  ,                                       ! Humidity Indicating Day Schedule Name
  DefaultMultipliers,                     ! Dry-Bulb Temperature Range Modifier Type
  ,                                       ! Dry-Bulb Temperature Range Modifier Schedule Name
  ASHRAEClearSky;                         ! Solar Model Indicator

OS:ComponentData,
  {fee2b5f1-62ce-4139-a887-f682d2745391}, ! Handle
  Component Data 1,                       ! Name
  {b2cd8de4-a283-40e8-9cf5-49965e92baee}, ! UUID
  {12a57dd7-8b4f-4f05-8d58-58811c9dfe77}, ! Version UUID
  1366307814,                             ! Creation Timestamp
  1366307814,                             ! Version Timestamp
  {633e0cc1-d21a-40a5-96b7-27ba58e01bd1}; ! Name of Object 1

