
OS:Version,
  {ba47911f-6809-430e-a564-ae44dcef05f0}, ! Handle
  0.9.3;                                  ! Version Identifier

OS:SizingPeriod:DesignDay,
  {9cb05301-2309-4a7a-a5d5-42c5d0791774}, ! Handle
  Sacramento Metropolitan Ap Ann Clg 2% Condns DB=>MWB, ! Name
  34.9,                                   ! Maximum Dry-Bulb Temperature {C}
  17.8,                                   ! Daily Dry-Bulb Temperature Range {deltaC}
  20.3,                                   ! Humidity Indicating Conditions at Maximum Dry-Bulb {BasedOnField A3}
  101241,                                 ! Barometric Pressure {Pa}
  2.9,                                    ! Wind Speed {m/s}
  180,                                    ! Wind Direction {deg}
  0,                                      ! Sky Clearness
  0,                                      ! Rain Indicator
  0,                                      ! Snow Indicator
  21,                                     ! Day of Month
  7,                                      ! Month
  SummerDesignDay,                        ! Day Type
  0,                                      ! Daylight Saving Time Indicator
  Wetbulb,                                ! Humidity Indicating Type
  ,                                       ! Humidity Indicating Day Schedule Name
  DefaultMultipliers,                     ! Dry-Bulb Temperature Range Modifier Type
  ,                                       ! Dry-Bulb Temperature Range Modifier Schedule Name
  ASHRAETau,                              ! Solar Model Indicator
  ,                                       ! Beam Solar Day Schedule Name
  ,                                       ! Diffuse Solar Day Schedule Name
  0.379,                                  ! ASHRAE Taub {dimensionless}
  2.355;                                  ! ASHRAE Taud {dimensionless}

OS:ComponentData,
  {59530003-df23-4207-a2be-053393162d40}, ! Handle
  Component Data 1,                       ! Name
  {295ced60-0456-495c-858b-5154e267d406}, ! UUID
  {1c82ef78-4073-4c5b-9120-a9ec406f8dc3}, ! Version UUID
  1366306567,                             ! Creation Timestamp
  1366306567,                             ! Version Timestamp
  {9cb05301-2309-4a7a-a5d5-42c5d0791774}; ! Name of Object 1

