
OS:Version,
  {9135bdc6-2a5d-4c95-85ba-9a980b3e6772}, ! Handle
  0.9.3;                                  ! Version Identifier

OS:SizingPeriod:DesignDay,
  {31770814-86b6-4d9a-89ae-d660ec587539}, ! Handle
  WACO Ann Hum_n 99% Condns DP=>MCDB,     ! Name
  1.4,                                    ! Maximum Dry-Bulb Temperature {C}
  0,                                      ! Daily Dry-Bulb Temperature Range {deltaC}
  -9.1,                                   ! Humidity Indicating Conditions at Maximum Dry-Bulb {BasedOnField A3}
  99477,                                  ! Barometric Pressure {Pa}
  5.1,                                    ! Wind Speed {m/s}
  0,                                      ! Wind Direction {deg}
  0,                                      ! Sky Clearness
  0,                                      ! Rain Indicator
  0,                                      ! Snow Indicator
  21,                                     ! Day of Month
  1,                                      ! Month
  WinterDesignDay,                        ! Day Type
  0,                                      ! Daylight Saving Time Indicator
  Dewpoint,                               ! Humidity Indicating Type
  ,                                       ! Humidity Indicating Day Schedule Name
  DefaultMultipliers,                     ! Dry-Bulb Temperature Range Modifier Type
  ,                                       ! Dry-Bulb Temperature Range Modifier Schedule Name
  ASHRAEClearSky;                         ! Solar Model Indicator

OS:ComponentData,
  {6f2286ad-3ac5-40aa-8f85-f75aea56035b}, ! Handle
  Component Data 1,                       ! Name
  {0a629909-aeae-46ab-a80a-368da55a04ba}, ! UUID
  {6ccce95d-69a2-4d22-a87f-901199e22cf4}, ! Version UUID
  1366310916,                             ! Creation Timestamp
  1366310916,                             ! Version Timestamp
  {31770814-86b6-4d9a-89ae-d660ec587539}; ! Name of Object 1

