
OS:Version,
  {a5cd4c4d-16e3-4fba-b2ef-58b0c4cd6059}, ! Handle
  0.9.3;                                  ! Version Identifier

OS:SizingPeriod:DesignDay,
  {29dbcc7d-336c-458a-99ba-55a51cafc240}, ! Handle
  Owatonna  Awos Ann Clg .4% Condns DB=>MWB, ! Name
  32.1,                                   ! Maximum Dry-Bulb Temperature {C}
  10.6,                                   ! Daily Dry-Bulb Temperature Range {deltaC}
  23.7,                                   ! Humidity Indicating Conditions at Maximum Dry-Bulb {BasedOnField A3}
  97190,                                  ! Barometric Pressure {Pa}
  5.6,                                    ! Wind Speed {m/s}
  170,                                    ! Wind Direction {deg}
  0,                                      ! Sky Clearness
  0,                                      ! Rain Indicator
  0,                                      ! Snow Indicator
  21,                                     ! Day of Month
  7,                                      ! Month
  SummerDesignDay,                        ! Day Type
  0,                                      ! Daylight Saving Time Indicator
  Wetbulb,                                ! Humidity Indicating Type
  ,                                       ! Humidity Indicating Day Schedule Name
  DefaultMultipliers,                     ! Dry-Bulb Temperature Range Modifier Type
  ,                                       ! Dry-Bulb Temperature Range Modifier Schedule Name
  ASHRAETau,                              ! Solar Model Indicator
  ,                                       ! Beam Solar Day Schedule Name
  ,                                       ! Diffuse Solar Day Schedule Name
  0.411,                                  ! ASHRAE Taub {dimensionless}
  2.201;                                  ! ASHRAE Taud {dimensionless}

OS:ComponentData,
  {b3f7bd28-5f06-4f5a-8bee-107c794362d0}, ! Handle
  Component Data 1,                       ! Name
  {8c83bfdb-6dce-4b3f-8864-350da1173c73}, ! UUID
  {e0642637-eeae-406c-8915-876b279fa5fe}, ! Version UUID
  1366308353,                             ! Creation Timestamp
  1366308353,                             ! Version Timestamp
  {29dbcc7d-336c-458a-99ba-55a51cafc240}; ! Name of Object 1

