
OS:Version,
  {ccdc4764-d9c3-4a43-abe8-57a7aad2d3fa}, ! Handle
  0.9.3;                                  ! Version Identifier

OS:SizingPeriod:DesignDay,
  {dda9955a-34b7-4258-a173-21aa911d1fb8}, ! Handle
  Roswell Ann Clg .4% Condns WB=>MDB,     ! Name
  30.6,                                   ! Maximum Dry-Bulb Temperature {C}
  14.1,                                   ! Daily Dry-Bulb Temperature Range {deltaC}
  21.5,                                   ! Humidity Indicating Conditions at Maximum Dry-Bulb {BasedOnField A3}
  88660,                                  ! Barometric Pressure {Pa}
  5.3,                                    ! Wind Speed {m/s}
  140,                                    ! Wind Direction {deg}
  0,                                      ! Sky Clearness
  0,                                      ! Rain Indicator
  0,                                      ! Snow Indicator
  21,                                     ! Day of Month
  7,                                      ! Month
  SummerDesignDay,                        ! Day Type
  0,                                      ! Daylight Saving Time Indicator
  Wetbulb,                                ! Humidity Indicating Type
  ,                                       ! Humidity Indicating Day Schedule Name
  DefaultMultipliers,                     ! Dry-Bulb Temperature Range Modifier Type
  ,                                       ! Dry-Bulb Temperature Range Modifier Schedule Name
  ASHRAETau,                              ! Solar Model Indicator
  ,                                       ! Beam Solar Day Schedule Name
  ,                                       ! Diffuse Solar Day Schedule Name
  0.461,                                  ! ASHRAE Taub {dimensionless}
  1.916;                                  ! ASHRAE Taud {dimensionless}

OS:ComponentData,
  {5c9099bd-752e-4324-821c-0da74e2fff7f}, ! Handle
  Component Data 1,                       ! Name
  {61824edf-98b0-45f1-8a67-93203037b45c}, ! UUID
  {51b9c462-a5e3-4ee9-bc86-89728a1777fb}, ! Version UUID
  1366309423,                             ! Creation Timestamp
  1366309423,                             ! Version Timestamp
  {dda9955a-34b7-4258-a173-21aa911d1fb8}; ! Name of Object 1

