
OS:Version,
  {4c7cd989-5047-4c8e-94e3-c19744cf3561}, ! Handle
  0.9.3;                                  ! Version Identifier

OS:SizingPeriod:DesignDay,
  {a12fc558-6c64-42be-bc79-856579741cff}, ! Handle
  Martinsburg Eastern Wv Reg Ap Ann Clg 1% Condns WB=>MDB, ! Name
  29.8,                                   ! Maximum Dry-Bulb Temperature {C}
  11.6,                                   ! Daily Dry-Bulb Temperature Range {deltaC}
  24.2,                                   ! Humidity Indicating Conditions at Maximum Dry-Bulb {BasedOnField A3}
  99394,                                  ! Barometric Pressure {Pa}
  4,                                      ! Wind Speed {m/s}
  270,                                    ! Wind Direction {deg}
  0,                                      ! Sky Clearness
  0,                                      ! Rain Indicator
  0,                                      ! Snow Indicator
  21,                                     ! Day of Month
  7,                                      ! Month
  SummerDesignDay,                        ! Day Type
  0,                                      ! Daylight Saving Time Indicator
  Wetbulb,                                ! Humidity Indicating Type
  ,                                       ! Humidity Indicating Day Schedule Name
  DefaultMultipliers,                     ! Dry-Bulb Temperature Range Modifier Type
  ,                                       ! Dry-Bulb Temperature Range Modifier Schedule Name
  ASHRAETau,                              ! Solar Model Indicator
  ,                                       ! Beam Solar Day Schedule Name
  ,                                       ! Diffuse Solar Day Schedule Name
  0.53,                                   ! ASHRAE Taub {dimensionless}
  1.809;                                  ! ASHRAE Taud {dimensionless}

