
OS:Version,
  {768aebe2-079c-4fb7-8fa6-65ad92fdaa91}, ! Handle
  0.9.3;                                  ! Version Identifier

OS:SizingPeriod:DesignDay,
  {5850f09f-76c4-4458-ba4d-4a7e96bc2ac2}, ! Handle
  Wiscasset Ann Clg 1% Condns WB=>MDB,    ! Name
  26.2,                                   ! Maximum Dry-Bulb Temperature {C}
  11.1,                                   ! Daily Dry-Bulb Temperature Range {deltaC}
  22,                                     ! Humidity Indicating Conditions at Maximum Dry-Bulb {BasedOnField A3}
  101073,                                 ! Barometric Pressure {Pa}
  3.2,                                    ! Wind Speed {m/s}
  200,                                    ! Wind Direction {deg}
  0,                                      ! Sky Clearness
  0,                                      ! Rain Indicator
  0,                                      ! Snow Indicator
  21,                                     ! Day of Month
  7,                                      ! Month
  SummerDesignDay,                        ! Day Type
  0,                                      ! Daylight Saving Time Indicator
  Wetbulb,                                ! Humidity Indicating Type
  ,                                       ! Humidity Indicating Day Schedule Name
  DefaultMultipliers,                     ! Dry-Bulb Temperature Range Modifier Type
  ,                                       ! Dry-Bulb Temperature Range Modifier Schedule Name
  ASHRAETau,                              ! Solar Model Indicator
  ,                                       ! Beam Solar Day Schedule Name
  ,                                       ! Diffuse Solar Day Schedule Name
  0.473,                                  ! ASHRAE Taub {dimensionless}
  1.988;                                  ! ASHRAE Taud {dimensionless}

OS:ComponentData,
  {05564f5d-7ce8-4103-b478-8be36b2b94b7}, ! Handle
  Component Data 1,                       ! Name
  {d9cce248-7cd7-4353-ab8e-c7c8230c997c}, ! UUID
  {c87f6c4a-b7b3-45f7-9395-a65118972c80}, ! Version UUID
  1366307935,                             ! Creation Timestamp
  1366307935,                             ! Version Timestamp
  {5850f09f-76c4-4458-ba4d-4a7e96bc2ac2}; ! Name of Object 1

