
OS:Version,
  {ec606311-5fa6-42dc-a0e6-d87823c155f1}, ! Handle
  0.9.3;                                  ! Version Identifier

OS:SizingPeriod:DesignDay,
  {dd34c97d-54e8-4fcc-9012-c7e6ffc563d6}, ! Handle
  TALKEETNA Ann Clg 1% Condns WB=>MDB,    ! Name
  21.2,                                   ! Maximum Dry-Bulb Temperature {C}
  8.8,                                    ! Daily Dry-Bulb Temperature Range {deltaC}
  15.6,                                   ! Humidity Indicating Conditions at Maximum Dry-Bulb {BasedOnField A3}
  100070,                                 ! Barometric Pressure {Pa}
  2.9,                                    ! Wind Speed {m/s}
  180,                                    ! Wind Direction {deg}
  0,                                      ! Sky Clearness
  0,                                      ! Rain Indicator
  0,                                      ! Snow Indicator
  21,                                     ! Day of Month
  7,                                      ! Month
  SummerDesignDay,                        ! Day Type
  0,                                      ! Daylight Saving Time Indicator
  Wetbulb,                                ! Humidity Indicating Type
  ,                                       ! Humidity Indicating Day Schedule Name
  DefaultMultipliers,                     ! Dry-Bulb Temperature Range Modifier Type
  ,                                       ! Dry-Bulb Temperature Range Modifier Schedule Name
  ASHRAETau,                              ! Solar Model Indicator
  ,                                       ! Beam Solar Day Schedule Name
  ,                                       ! Diffuse Solar Day Schedule Name
  0.379,                                  ! ASHRAE Taub {dimensionless}
  2.177;                                  ! ASHRAE Taud {dimensionless}

OS:ComponentData,
  {00e7619a-8742-443e-98e1-a564d4046e7d}, ! Handle
  Component Data 1,                       ! Name
  {9742a3db-c27d-4a3e-9d2f-af277ad81c87}, ! UUID
  {df0a6f6e-a39e-486c-9932-1c70316b88b7}, ! Version UUID
  1366305583,                             ! Creation Timestamp
  1366305583,                             ! Version Timestamp
  {dd34c97d-54e8-4fcc-9012-c7e6ffc563d6}; ! Name of Object 1

