
OS:Version,
  {b3970bd7-456f-4b48-be24-da702bbb394e}, ! Handle
  0.9.3;                                  ! Version Identifier

OS:SizingPeriod:DesignDay,
  {d1300814-cb5f-4e3a-9519-5fad6cd2474f}, ! Handle
  Siloam Spring Awos Ann Hum_n 99.6% Condns DP=>MCDB, ! Name
  -10.5,                                  ! Maximum Dry-Bulb Temperature {C}
  0,                                      ! Daily Dry-Bulb Temperature Range {deltaC}
  -17.3,                                  ! Humidity Indicating Conditions at Maximum Dry-Bulb {BasedOnField A3}
  97028,                                  ! Barometric Pressure {Pa}
  3.5,                                    ! Wind Speed {m/s}
  10,                                     ! Wind Direction {deg}
  0,                                      ! Sky Clearness
  0,                                      ! Rain Indicator
  0,                                      ! Snow Indicator
  21,                                     ! Day of Month
  1,                                      ! Month
  WinterDesignDay,                        ! Day Type
  0,                                      ! Daylight Saving Time Indicator
  Dewpoint,                               ! Humidity Indicating Type
  ,                                       ! Humidity Indicating Day Schedule Name
  DefaultMultipliers,                     ! Dry-Bulb Temperature Range Modifier Type
  ,                                       ! Dry-Bulb Temperature Range Modifier Schedule Name
  ASHRAEClearSky;                         ! Solar Model Indicator

OS:ComponentData,
  {72b92616-1c12-4e30-a326-21c4e15c2ddf}, ! Handle
  Component Data 1,                       ! Name
  {307846e0-091a-47f1-84fb-47e2eb1f24ea}, ! UUID
  {34205ab3-4df3-48d1-b3b8-89a76c47b7cf}, ! Version UUID
  1366306246,                             ! Creation Timestamp
  1366306246,                             ! Version Timestamp
  {d1300814-cb5f-4e3a-9519-5fad6cd2474f}; ! Name of Object 1

