
OS:Version,
  {19085692-642b-412a-af52-98d9c92df7ab}, ! Handle
  0.9.3;                                  ! Version Identifier

OS:SizingPeriod:DesignDay,
  {9afef942-515d-4f22-808f-b2e8aba21455}, ! Handle
  Moline Quad City Intl Ap Ann Clg 2% Condns DP=>MDB, ! Name
  27.4,                                   ! Maximum Dry-Bulb Temperature {C}
  11.1,                                   ! Daily Dry-Bulb Temperature Range {deltaC}
  22.7,                                   ! Humidity Indicating Conditions at Maximum Dry-Bulb {BasedOnField A3}
  99181,                                  ! Barometric Pressure {Pa}
  4.9,                                    ! Wind Speed {m/s}
  210,                                    ! Wind Direction {deg}
  0,                                      ! Sky Clearness
  0,                                      ! Rain Indicator
  0,                                      ! Snow Indicator
  21,                                     ! Day of Month
  7,                                      ! Month
  SummerDesignDay,                        ! Day Type
  0,                                      ! Daylight Saving Time Indicator
  Dewpoint,                               ! Humidity Indicating Type
  ,                                       ! Humidity Indicating Day Schedule Name
  DefaultMultipliers,                     ! Dry-Bulb Temperature Range Modifier Type
  ,                                       ! Dry-Bulb Temperature Range Modifier Schedule Name
  ASHRAETau,                              ! Solar Model Indicator
  ,                                       ! Beam Solar Day Schedule Name
  ,                                       ! Diffuse Solar Day Schedule Name
  0.449,                                  ! ASHRAE Taub {dimensionless}
  2.068;                                  ! ASHRAE Taud {dimensionless}

OS:ComponentData,
  {0c5bed9a-77d5-46ee-9215-233013980fe9}, ! Handle
  Component Data 1,                       ! Name
  {b6c6e128-be73-458e-8f2b-317355a125b3}, ! UUID
  {0225ddc5-2027-4e3c-bc54-a532cb2afdf3}, ! Version UUID
  1366307369,                             ! Creation Timestamp
  1366307369,                             ! Version Timestamp
  {9afef942-515d-4f22-808f-b2e8aba21455}; ! Name of Object 1

