
OS:Version,
  {539ca615-2fd3-44b9-a658-04ad9fb5c13d}, ! Handle
  0.9.3;                                  ! Version Identifier

OS:SizingPeriod:DesignDay,
  {a9e92a9b-a051-4dfd-956f-7a9cfe23b067}, ! Handle
  Reno Ann Clg 1% Condns WB=>MDB,         ! Name
  30.9,                                   ! Maximum Dry-Bulb Temperature {C}
  18.8,                                   ! Daily Dry-Bulb Temperature Range {deltaC}
  16.9,                                   ! Humidity Indicating Conditions at Maximum Dry-Bulb {BasedOnField A3}
  86219,                                  ! Barometric Pressure {Pa}
  4.5,                                    ! Wind Speed {m/s}
  270,                                    ! Wind Direction {deg}
  0,                                      ! Sky Clearness
  0,                                      ! Rain Indicator
  0,                                      ! Snow Indicator
  21,                                     ! Day of Month
  7,                                      ! Month
  SummerDesignDay,                        ! Day Type
  0,                                      ! Daylight Saving Time Indicator
  Wetbulb,                                ! Humidity Indicating Type
  ,                                       ! Humidity Indicating Day Schedule Name
  DefaultMultipliers,                     ! Dry-Bulb Temperature Range Modifier Type
  ,                                       ! Dry-Bulb Temperature Range Modifier Schedule Name
  ASHRAETau,                              ! Solar Model Indicator
  ,                                       ! Beam Solar Day Schedule Name
  ,                                       ! Diffuse Solar Day Schedule Name
  0.398,                                  ! ASHRAE Taub {dimensionless}
  2.123;                                  ! ASHRAE Taud {dimensionless}

OS:ComponentData,
  {3a8bc0a3-43d4-48e1-b593-47927f52a900}, ! Handle
  Component Data 1,                       ! Name
  {a293c8e0-7264-40a3-b5ce-88e4681cde08}, ! UUID
  {67484272-9952-4b36-8659-e17471a1308d}, ! Version UUID
  1366309531,                             ! Creation Timestamp
  1366309531,                             ! Version Timestamp
  {a9e92a9b-a051-4dfd-956f-7a9cfe23b067}; ! Name of Object 1

