
OS:Version,
  {9c5870c5-6de5-4563-80f7-67533e949ce3}, ! Handle
  0.9.3;                                  ! Version Identifier

OS:SizingPeriod:DesignDay,
  {7515e62f-b4ba-4da6-8431-96fcd2517a42}, ! Handle
  Winchester Rgnl Ann Clg 2% Condns DP=>MDB, ! Name
  26.7,                                   ! Maximum Dry-Bulb Temperature {C}
  11.2,                                   ! Daily Dry-Bulb Temperature Range {deltaC}
  22.4,                                   ! Humidity Indicating Conditions at Maximum Dry-Bulb {BasedOnField A3}
  98686,                                  ! Barometric Pressure {Pa}
  3.4,                                    ! Wind Speed {m/s}
  280,                                    ! Wind Direction {deg}
  0,                                      ! Sky Clearness
  0,                                      ! Rain Indicator
  0,                                      ! Snow Indicator
  21,                                     ! Day of Month
  7,                                      ! Month
  SummerDesignDay,                        ! Day Type
  0,                                      ! Daylight Saving Time Indicator
  Dewpoint,                               ! Humidity Indicating Type
  ,                                       ! Humidity Indicating Day Schedule Name
  DefaultMultipliers,                     ! Dry-Bulb Temperature Range Modifier Type
  ,                                       ! Dry-Bulb Temperature Range Modifier Schedule Name
  ASHRAETau,                              ! Solar Model Indicator
  ,                                       ! Beam Solar Day Schedule Name
  ,                                       ! Diffuse Solar Day Schedule Name
  0.532,                                  ! ASHRAE Taub {dimensionless}
  1.802;                                  ! ASHRAE Taud {dimensionless}

OS:ComponentData,
  {16d20cb0-7e71-4ebe-bd84-9aaf1137a0c3}, ! Handle
  Component Data 1,                       ! Name
  {d668ab21-36fb-4717-9359-742bcf01ac50}, ! UUID
  {e81ebd09-e6d7-46fc-9a49-5506fa36099d}, ! Version UUID
  1366311225,                             ! Creation Timestamp
  1366311225,                             ! Version Timestamp
  {7515e62f-b4ba-4da6-8431-96fcd2517a42}; ! Name of Object 1

