
OS:Version,
  {e5057446-af18-4131-83f0-db9128bdd40a}, ! Handle
  0.9.3;                                  ! Version Identifier

OS:SizingPeriod:DesignDay,
  {734316e4-1c24-4e2a-a249-0517549b3479}, ! Handle
  Ocala Muni  Awos Ann Clg 1% Condns DB=>MWB, ! Name
  33,                                     ! Maximum Dry-Bulb Temperature {C}
  10.3,                                   ! Daily Dry-Bulb Temperature Range {deltaC}
  24,                                     ! Humidity Indicating Conditions at Maximum Dry-Bulb {BasedOnField A3}
  101001,                                 ! Barometric Pressure {Pa}
  3.2,                                    ! Wind Speed {m/s}
  250,                                    ! Wind Direction {deg}
  0,                                      ! Sky Clearness
  0,                                      ! Rain Indicator
  0,                                      ! Snow Indicator
  21,                                     ! Day of Month
  7,                                      ! Month
  SummerDesignDay,                        ! Day Type
  0,                                      ! Daylight Saving Time Indicator
  Wetbulb,                                ! Humidity Indicating Type
  ,                                       ! Humidity Indicating Day Schedule Name
  DefaultMultipliers,                     ! Dry-Bulb Temperature Range Modifier Type
  ,                                       ! Dry-Bulb Temperature Range Modifier Schedule Name
  ASHRAETau,                              ! Solar Model Indicator
  ,                                       ! Beam Solar Day Schedule Name
  ,                                       ! Diffuse Solar Day Schedule Name
  0.524,                                  ! ASHRAE Taub {dimensionless}
  1.897;                                  ! ASHRAE Taud {dimensionless}

OS:ComponentData,
  {98a2efb6-65b4-43b7-b1fe-b2798618a0ec}, ! Handle
  Component Data 1,                       ! Name
  {09a5b347-ae7c-40db-8f2f-ce87995aecb6}, ! UUID
  {662baa86-a21b-466e-84af-215f80db3d3b}, ! Version UUID
  1366306880,                             ! Creation Timestamp
  1366306880,                             ! Version Timestamp
  {734316e4-1c24-4e2a-a249-0517549b3479}; ! Name of Object 1

