
OS:Version,
  {ffcc4df9-73fc-46ff-9f53-e72a3caaf321}, ! Handle
  0.9.3;                                  ! Version Identifier

OS:SizingPeriod:DesignDay,
  {432e9a37-061b-4f2a-ad41-716b6851872a}, ! Handle
  Yuma Intl Arpt Ann Htg Wind 99.6% Condns WS=>MCDB, ! Name
  15.5,                                   ! Maximum Dry-Bulb Temperature {C}
  0,                                      ! Daily Dry-Bulb Temperature Range {deltaC}
  15.5,                                   ! Humidity Indicating Conditions at Maximum Dry-Bulb {BasedOnField A3}
  100570,                                 ! Barometric Pressure {Pa}
  10.8,                                   ! Wind Speed {m/s}
  30,                                     ! Wind Direction {deg}
  0,                                      ! Sky Clearness
  0,                                      ! Rain Indicator
  0,                                      ! Snow Indicator
  21,                                     ! Day of Month
  12,                                     ! Month
  WinterDesignDay,                        ! Day Type
  0,                                      ! Daylight Saving Time Indicator
  Wetbulb,                                ! Humidity Indicating Type
  ,                                       ! Humidity Indicating Day Schedule Name
  DefaultMultipliers,                     ! Dry-Bulb Temperature Range Modifier Type
  ,                                       ! Dry-Bulb Temperature Range Modifier Schedule Name
  ASHRAEClearSky;                         ! Solar Model Indicator

OS:ComponentData,
  {6b6a4dac-21e2-4041-a2b2-1ee780757259}, ! Handle
  Component Data 1,                       ! Name
  {87d3d32d-4f3a-4daf-ae3b-a5b7467c3cd2}, ! UUID
  {d838b6b4-3883-47f8-8b8e-03fb7e982027}, ! Version UUID
  1366306337,                             ! Creation Timestamp
  1366306337,                             ! Version Timestamp
  {432e9a37-061b-4f2a-ad41-716b6851872a}; ! Name of Object 1

