
OS:Version,
  {b85151fc-849f-4351-8170-fb878f9bc5fa}, ! Handle
  0.9.3;                                  ! Version Identifier

OS:SizingPeriod:DesignDay,
  {c2762ef6-4c4f-4df4-8b4d-5d4ac061c96b}, ! Handle
  Tupelo C D Lemons Arpt Ann Hum_n 99% Condns DP=>MCDB, ! Name
  -1.8,                                   ! Maximum Dry-Bulb Temperature {C}
  0,                                      ! Daily Dry-Bulb Temperature Range {deltaC}
  -11.4,                                  ! Humidity Indicating Conditions at Maximum Dry-Bulb {BasedOnField A3}
  100011,                                 ! Barometric Pressure {Pa}
  3,                                      ! Wind Speed {m/s}
  0,                                      ! Wind Direction {deg}
  0,                                      ! Sky Clearness
  0,                                      ! Rain Indicator
  0,                                      ! Snow Indicator
  21,                                     ! Day of Month
  1,                                      ! Month
  WinterDesignDay,                        ! Day Type
  0,                                      ! Daylight Saving Time Indicator
  Dewpoint,                               ! Humidity Indicating Type
  ,                                       ! Humidity Indicating Day Schedule Name
  DefaultMultipliers,                     ! Dry-Bulb Temperature Range Modifier Type
  ,                                       ! Dry-Bulb Temperature Range Modifier Schedule Name
  ASHRAEClearSky;                         ! Solar Model Indicator

OS:ComponentData,
  {0d862a09-c344-4a28-ba60-c9eb423e5fcb}, ! Handle
  Component Data 1,                       ! Name
  {96c3be03-da64-4779-bd4a-9cb7c36bbce7}, ! UUID
  {f734236c-9616-4a92-ae6b-5056dcd7b882}, ! Version UUID
  1366308690,                             ! Creation Timestamp
  1366308690,                             ! Version Timestamp
  {c2762ef6-4c4f-4df4-8b4d-5d4ac061c96b}; ! Name of Object 1

