
OS:Version,
  {30b07a19-7b39-4c6a-b269-43d26e08df49}, ! Handle
  0.9.3;                                  ! Version Identifier

OS:SizingPeriod:DesignDay,
  {fc64235b-9a75-4a47-b7ee-dc6ee6717f52}, ! Handle
  Wichita Falls/Sheppard Ann Clg .4% Condns DP=>MDB, ! Name
  28.2,                                   ! Maximum Dry-Bulb Temperature {C}
  13,                                     ! Daily Dry-Bulb Temperature Range {deltaC}
  23.3,                                   ! Humidity Indicating Conditions at Maximum Dry-Bulb {BasedOnField A3}
  97609,                                  ! Barometric Pressure {Pa}
  5.5,                                    ! Wind Speed {m/s}
  180,                                    ! Wind Direction {deg}
  0,                                      ! Sky Clearness
  0,                                      ! Rain Indicator
  0,                                      ! Snow Indicator
  21,                                     ! Day of Month
  7,                                      ! Month
  SummerDesignDay,                        ! Day Type
  0,                                      ! Daylight Saving Time Indicator
  Dewpoint,                               ! Humidity Indicating Type
  ,                                       ! Humidity Indicating Day Schedule Name
  DefaultMultipliers,                     ! Dry-Bulb Temperature Range Modifier Type
  ,                                       ! Dry-Bulb Temperature Range Modifier Schedule Name
  ASHRAETau,                              ! Solar Model Indicator
  ,                                       ! Beam Solar Day Schedule Name
  ,                                       ! Diffuse Solar Day Schedule Name
  0.44,                                   ! ASHRAE Taub {dimensionless}
  2.15;                                   ! ASHRAE Taud {dimensionless}

OS:ComponentData,
  {f149b6b4-514a-43a0-b49a-c51463b22cfe}, ! Handle
  Component Data 1,                       ! Name
  {098bf2a4-227c-421c-b77f-cf8d913e259a}, ! UUID
  {ed758482-fee1-4d2d-8443-1501a681d5ef}, ! Version UUID
  1366310932,                             ! Creation Timestamp
  1366310932,                             ! Version Timestamp
  {fc64235b-9a75-4a47-b7ee-dc6ee6717f52}; ! Name of Object 1

