
OS:Version,
  {c564f6f2-a95c-4f03-9ed3-48c1608c1cd7}, ! Handle
  0.9.3;                                  ! Version Identifier

OS:SizingPeriod:DesignDay,
  {caf368bb-246c-48b0-8551-e913c283cf98}, ! Handle
  Paducah Barkley Regional Ap Ann Clg 2% Condns DP=>MDB, ! Name
  28.4,                                   ! Maximum Dry-Bulb Temperature {C}
  10.8,                                   ! Daily Dry-Bulb Temperature Range {deltaC}
  23.7,                                   ! Humidity Indicating Conditions at Maximum Dry-Bulb {BasedOnField A3}
  99844,                                  ! Barometric Pressure {Pa}
  3.6,                                    ! Wind Speed {m/s}
  180,                                    ! Wind Direction {deg}
  0,                                      ! Sky Clearness
  0,                                      ! Rain Indicator
  0,                                      ! Snow Indicator
  21,                                     ! Day of Month
  7,                                      ! Month
  SummerDesignDay,                        ! Day Type
  0,                                      ! Daylight Saving Time Indicator
  Dewpoint,                               ! Humidity Indicating Type
  ,                                       ! Humidity Indicating Day Schedule Name
  DefaultMultipliers,                     ! Dry-Bulb Temperature Range Modifier Type
  ,                                       ! Dry-Bulb Temperature Range Modifier Schedule Name
  ASHRAETau,                              ! Solar Model Indicator
  ,                                       ! Beam Solar Day Schedule Name
  ,                                       ! Diffuse Solar Day Schedule Name
  0.495,                                  ! ASHRAE Taub {dimensionless}
  1.94;                                   ! ASHRAE Taud {dimensionless}

OS:ComponentData,
  {81d7fbf9-53f2-4f77-b059-89407367aed0}, ! Handle
  Component Data 1,                       ! Name
  {d2a1c044-30ea-4457-a394-b45ef171f8a6}, ! UUID
  {7eda933c-bb0f-40cd-b8c1-2819307dfe5c}, ! Version UUID
  1366307680,                             ! Creation Timestamp
  1366307680,                             ! Version Timestamp
  {caf368bb-246c-48b0-8551-e913c283cf98}; ! Name of Object 1

