
OS:Version,
  {6c1e36c3-18c4-4f34-a786-f35a54b547d6}, ! Handle
  0.9.3;                                  ! Version Identifier

OS:SizingPeriod:DesignDay,
  {413deff2-1433-4677-95ef-f4d7dee732f1}, ! Handle
  Pueblo Ann Hum_n 99.6% Condns DP=>MCDB, ! Name
  -13.6,                                  ! Maximum Dry-Bulb Temperature {C}
  0,                                      ! Daily Dry-Bulb Temperature Range {deltaC}
  -22.4,                                  ! Humidity Indicating Conditions at Maximum Dry-Bulb {BasedOnField A3}
  85191,                                  ! Barometric Pressure {Pa}
  1.9,                                    ! Wind Speed {m/s}
  250,                                    ! Wind Direction {deg}
  0,                                      ! Sky Clearness
  0,                                      ! Rain Indicator
  0,                                      ! Snow Indicator
  21,                                     ! Day of Month
  12,                                     ! Month
  WinterDesignDay,                        ! Day Type
  0,                                      ! Daylight Saving Time Indicator
  Dewpoint,                               ! Humidity Indicating Type
  ,                                       ! Humidity Indicating Day Schedule Name
  DefaultMultipliers,                     ! Dry-Bulb Temperature Range Modifier Type
  ,                                       ! Dry-Bulb Temperature Range Modifier Schedule Name
  ASHRAEClearSky;                         ! Solar Model Indicator

OS:ComponentData,
  {28f5f622-1e8f-43d0-914f-487c4a9db2e7}, ! Handle
  Component Data 1,                       ! Name
  {41efb04e-a25d-4297-aa8a-41d5e13f3fb8}, ! UUID
  {9a966367-65e8-42ae-a13e-3e45a8b60b0a}, ! Version UUID
  1366306728,                             ! Creation Timestamp
  1366306728,                             ! Version Timestamp
  {413deff2-1433-4677-95ef-f4d7dee732f1}; ! Name of Object 1

