
OS:Version,
  {9158b9ac-b141-4e98-9afa-58cc3f0ebbec}, ! Handle
  0.9.3;                                  ! Version Identifier

OS:SizingPeriod:DesignDay,
  {61b49f30-46ce-418d-a62d-728b68139778}, ! Handle
  Middletown Harrisburg Intl Ap Ann Hum_n 99% Condns DP=>MCDB, ! Name
  -7.7,                                   ! Maximum Dry-Bulb Temperature {C}
  0,                                      ! Daily Dry-Bulb Temperature Range {deltaC}
  -17.4,                                  ! Humidity Indicating Conditions at Maximum Dry-Bulb {BasedOnField A3}
  100225,                                 ! Barometric Pressure {Pa}
  4.3,                                    ! Wind Speed {m/s}
  310,                                    ! Wind Direction {deg}
  0,                                      ! Sky Clearness
  0,                                      ! Rain Indicator
  0,                                      ! Snow Indicator
  21,                                     ! Day of Month
  1,                                      ! Month
  WinterDesignDay,                        ! Day Type
  0,                                      ! Daylight Saving Time Indicator
  Dewpoint,                               ! Humidity Indicating Type
  ,                                       ! Humidity Indicating Day Schedule Name
  DefaultMultipliers,                     ! Dry-Bulb Temperature Range Modifier Type
  ,                                       ! Dry-Bulb Temperature Range Modifier Schedule Name
  ASHRAEClearSky;                         ! Solar Model Indicator

OS:ComponentData,
  {eb0d2913-eb56-4bc8-b1a4-0d5768c1ed78}, ! Handle
  Component Data 1,                       ! Name
  {ad3cdfaf-98f1-4069-97ef-cdcfd9a962c4}, ! UUID
  {69caaf2d-f50a-496d-b62b-e3858b2361ee}, ! Version UUID
  1366310196,                             ! Creation Timestamp
  1366310196,                             ! Version Timestamp
  {61b49f30-46ce-418d-a62d-728b68139778}; ! Name of Object 1

