
OS:Version,
  {5c61d328-84b4-40c4-bc8a-49e8138405c6}, ! Handle
  0.9.3;                                  ! Version Identifier

OS:SizingPeriod:DesignDay,
  {8ee7740b-0db3-4b66-af14-5d57ec18ed3d}, ! Handle
  SHREVEPORT Ann Htg Wind 99% Condns WS=>MCDB, ! Name
  12.4,                                   ! Maximum Dry-Bulb Temperature {C}
  0,                                      ! Daily Dry-Bulb Temperature Range {deltaC}
  12.4,                                   ! Humidity Indicating Conditions at Maximum Dry-Bulb {BasedOnField A3}
  100380,                                 ! Barometric Pressure {Pa}
  9.3,                                    ! Wind Speed {m/s}
  350,                                    ! Wind Direction {deg}
  0,                                      ! Sky Clearness
  0,                                      ! Rain Indicator
  0,                                      ! Snow Indicator
  21,                                     ! Day of Month
  1,                                      ! Month
  WinterDesignDay,                        ! Day Type
  0,                                      ! Daylight Saving Time Indicator
  Wetbulb,                                ! Humidity Indicating Type
  ,                                       ! Humidity Indicating Day Schedule Name
  DefaultMultipliers,                     ! Dry-Bulb Temperature Range Modifier Type
  ,                                       ! Dry-Bulb Temperature Range Modifier Schedule Name
  ASHRAEClearSky;                         ! Solar Model Indicator

OS:ComponentData,
  {bca34ec4-dd5d-4593-85e7-f74ecfabff01}, ! Handle
  Component Data 1,                       ! Name
  {a2a28894-ca87-4b48-80b2-45b71d100885}, ! UUID
  {5ba50b27-0702-4252-a0d8-28f5c48ca546}, ! Version UUID
  1366307762,                             ! Creation Timestamp
  1366307762,                             ! Version Timestamp
  {8ee7740b-0db3-4b66-af14-5d57ec18ed3d}; ! Name of Object 1

