
OS:Version,
  {ade1d592-f64c-4f24-8fcf-15e2d2830b9a}, ! Handle
  0.9.3;                                  ! Version Identifier

OS:SizingPeriod:DesignDay,
  {190d499a-c8d8-4f4d-ae04-fac176f1898b}, ! Handle
  New Orleans/Lakefront Ann Clg 2% Condns WB=>MDB, ! Name
  30.5,                                   ! Maximum Dry-Bulb Temperature {C}
  8.5,                                    ! Daily Dry-Bulb Temperature Range {deltaC}
  26.3,                                   ! Humidity Indicating Conditions at Maximum Dry-Bulb {BasedOnField A3}
  101289,                                 ! Barometric Pressure {Pa}
  3.4,                                    ! Wind Speed {m/s}
  0,                                      ! Wind Direction {deg}
  0,                                      ! Sky Clearness
  0,                                      ! Rain Indicator
  0,                                      ! Snow Indicator
  21,                                     ! Day of Month
  8,                                      ! Month
  SummerDesignDay,                        ! Day Type
  0,                                      ! Daylight Saving Time Indicator
  Wetbulb,                                ! Humidity Indicating Type
  ,                                       ! Humidity Indicating Day Schedule Name
  DefaultMultipliers,                     ! Dry-Bulb Temperature Range Modifier Type
  ,                                       ! Dry-Bulb Temperature Range Modifier Schedule Name
  ASHRAETau,                              ! Solar Model Indicator
  ,                                       ! Beam Solar Day Schedule Name
  ,                                       ! Diffuse Solar Day Schedule Name
  0.553,                                  ! ASHRAE Taub {dimensionless}
  1.821;                                  ! ASHRAE Taud {dimensionless}

OS:ComponentData,
  {f0626c2d-e412-4949-a6b3-c3d86f80772a}, ! Handle
  Component Data 1,                       ! Name
  {51ecc3df-bb57-4828-a744-2f0999afbeb8}, ! UUID
  {e8fd3f1a-0c9e-4b0d-9a73-071dddfd824e}, ! Version UUID
  1366307751,                             ! Creation Timestamp
  1366307751,                             ! Version Timestamp
  {190d499a-c8d8-4f4d-ae04-fac176f1898b}; ! Name of Object 1

