
OS:Version,
  {01dc4dcc-4fe3-40b3-8aed-9cc722583705}, ! Handle
  0.9.3;                                  ! Version Identifier

OS:SizingPeriod:DesignDay,
  {1949c6d7-5fe9-4f25-9315-0b8e1154a1ae}, ! Handle
  Red Bluff Municipal Arpt Ann Clg 2% Condns WB=>MDB, ! Name
  33.4,                                   ! Maximum Dry-Bulb Temperature {C}
  16.9,                                   ! Daily Dry-Bulb Temperature Range {deltaC}
  20.9,                                   ! Humidity Indicating Conditions at Maximum Dry-Bulb {BasedOnField A3}
  100058,                                 ! Barometric Pressure {Pa}
  3.9,                                    ! Wind Speed {m/s}
  150,                                    ! Wind Direction {deg}
  0,                                      ! Sky Clearness
  0,                                      ! Rain Indicator
  0,                                      ! Snow Indicator
  21,                                     ! Day of Month
  7,                                      ! Month
  SummerDesignDay,                        ! Day Type
  0,                                      ! Daylight Saving Time Indicator
  Wetbulb,                                ! Humidity Indicating Type
  ,                                       ! Humidity Indicating Day Schedule Name
  DefaultMultipliers,                     ! Dry-Bulb Temperature Range Modifier Type
  ,                                       ! Dry-Bulb Temperature Range Modifier Schedule Name
  ASHRAETau,                              ! Solar Model Indicator
  ,                                       ! Beam Solar Day Schedule Name
  ,                                       ! Diffuse Solar Day Schedule Name
  0.364,                                  ! ASHRAE Taub {dimensionless}
  2.504;                                  ! ASHRAE Taud {dimensionless}

OS:ComponentData,
  {fc121bd0-93d2-45f8-b803-42cbe7a6ba8d}, ! Handle
  Component Data 1,                       ! Name
  {2a4598a8-5bdc-4878-8462-2aadf6c442ca}, ! UUID
  {380b11a3-ca8e-438e-b4c9-b3fcf79ece3c}, ! Version UUID
  1366306546,                             ! Creation Timestamp
  1366306546,                             ! Version Timestamp
  {1949c6d7-5fe9-4f25-9315-0b8e1154a1ae}; ! Name of Object 1

