
OS:Version,
  {341f352f-8bbd-4318-a05b-db8471ec1d81}, ! Handle
  0.9.3;                                  ! Version Identifier

OS:SizingPeriod:DesignDay,
  {3370931b-acf6-4c54-a35d-6c70e4e8beb8}, ! Handle
  Two Harbors Ann Htg 99% Condns DB,      ! Name
  -23.7,                                  ! Maximum Dry-Bulb Temperature {C}
  0,                                      ! Daily Dry-Bulb Temperature Range {deltaC}
  -23.7,                                  ! Humidity Indicating Conditions at Maximum Dry-Bulb {BasedOnField A3}
  97446,                                  ! Barometric Pressure {Pa}
  2.7,                                    ! Wind Speed {m/s}
  290,                                    ! Wind Direction {deg}
  0,                                      ! Sky Clearness
  0,                                      ! Rain Indicator
  0,                                      ! Snow Indicator
  21,                                     ! Day of Month
  1,                                      ! Month
  WinterDesignDay,                        ! Day Type
  0,                                      ! Daylight Saving Time Indicator
  Wetbulb,                                ! Humidity Indicating Type
  ,                                       ! Humidity Indicating Day Schedule Name
  DefaultMultipliers,                     ! Dry-Bulb Temperature Range Modifier Type
  ,                                       ! Dry-Bulb Temperature Range Modifier Schedule Name
  ASHRAEClearSky;                         ! Solar Model Indicator

OS:ComponentData,
  {0ad66f8e-a6f9-4db7-a858-65e4165557e8}, ! Handle
  Component Data 1,                       ! Name
  {02ef4d6e-3a86-4f3a-88b2-c3f0eb5930f2}, ! UUID
  {7cd8a524-5489-4f49-83b5-10b033383458}, ! Version UUID
  1366308445,                             ! Creation Timestamp
  1366308445,                             ! Version Timestamp
  {3370931b-acf6-4c54-a35d-6c70e4e8beb8}; ! Name of Object 1

