
OS:Version,
  {34cbf8eb-36a1-4bf7-b915-dd222129a776}, ! Handle
  0.9.3;                                  ! Version Identifier

OS:SizingPeriod:DesignDay,
  {3a7b1c52-b799-4ec0-bbe3-541a06942c72}, ! Handle
  Wichita Falls Municipal Arpt Ann Hum_n 99.6% Condns DP=>MCDB, ! Name
  -6.4,                                   ! Maximum Dry-Bulb Temperature {C}
  0,                                      ! Daily Dry-Bulb Temperature Range {deltaC}
  -16,                                    ! Humidity Indicating Conditions at Maximum Dry-Bulb {BasedOnField A3}
  97609,                                  ! Barometric Pressure {Pa}
  5.7,                                    ! Wind Speed {m/s}
  0,                                      ! Wind Direction {deg}
  0,                                      ! Sky Clearness
  0,                                      ! Rain Indicator
  0,                                      ! Snow Indicator
  21,                                     ! Day of Month
  1,                                      ! Month
  WinterDesignDay,                        ! Day Type
  0,                                      ! Daylight Saving Time Indicator
  Dewpoint,                               ! Humidity Indicating Type
  ,                                       ! Humidity Indicating Day Schedule Name
  DefaultMultipliers,                     ! Dry-Bulb Temperature Range Modifier Type
  ,                                       ! Dry-Bulb Temperature Range Modifier Schedule Name
  ASHRAEClearSky;                         ! Solar Model Indicator

OS:ComponentData,
  {82965173-ad1f-479d-a717-049f5c0594be}, ! Handle
  Component Data 1,                       ! Name
  {13a1f0ea-3278-4f70-b8b0-53c2e00ace56}, ! UUID
  {be7ec715-bf95-4362-8b0e-cfc4133f97b9}, ! Version UUID
  1366310935,                             ! Creation Timestamp
  1366310935,                             ! Version Timestamp
  {3a7b1c52-b799-4ec0-bbe3-541a06942c72}; ! Name of Object 1

