
OS:Version,
  {8b121971-fa33-4e14-8e71-f496359a6fbd}, ! Handle
  0.9.3;                                  ! Version Identifier

OS:SizingPeriod:DesignDay,
  {4361bd3d-7355-4e73-aab5-f96a1880c273}, ! Handle
  Phoenix/Int'l Airport Ann Clg 2% Condns DP=>MDB, ! Name
  30.2,                                   ! Maximum Dry-Bulb Temperature {C}
  12,                                     ! Daily Dry-Bulb Temperature Range {deltaC}
  20,                                     ! Humidity Indicating Conditions at Maximum Dry-Bulb {BasedOnField A3}
  97342,                                  ! Barometric Pressure {Pa}
  4.1,                                    ! Wind Speed {m/s}
  260,                                    ! Wind Direction {deg}
  0,                                      ! Sky Clearness
  0,                                      ! Rain Indicator
  0,                                      ! Snow Indicator
  21,                                     ! Day of Month
  7,                                      ! Month
  SummerDesignDay,                        ! Day Type
  0,                                      ! Daylight Saving Time Indicator
  Dewpoint,                               ! Humidity Indicating Type
  ,                                       ! Humidity Indicating Day Schedule Name
  DefaultMultipliers,                     ! Dry-Bulb Temperature Range Modifier Type
  ,                                       ! Dry-Bulb Temperature Range Modifier Schedule Name
  ASHRAETau,                              ! Solar Model Indicator
  ,                                       ! Beam Solar Day Schedule Name
  ,                                       ! Diffuse Solar Day Schedule Name
  0.588,                                  ! ASHRAE Taub {dimensionless}
  1.653;                                  ! ASHRAE Taud {dimensionless}

OS:ComponentData,
  {4e153f42-28a8-4093-bd1e-c0a59daec0b3}, ! Handle
  Component Data 1,                       ! Name
  {ba1424fe-136f-49a5-b032-d46e7480149a}, ! UUID
  {84d3e6a1-52fc-4488-8547-6ac40c3efd93}, ! Version UUID
  1366306292,                             ! Creation Timestamp
  1366306292,                             ! Version Timestamp
  {4361bd3d-7355-4e73-aab5-f96a1880c273}; ! Name of Object 1

