
OS:Version,
  {b5e45892-8785-4afb-90db-97d0727ce09f}, ! Handle
  0.9.3;                                  ! Version Identifier

OS:SizingPeriod:DesignDay,
  {b54239ab-3b1c-49f9-a4ea-3b6f642c7e74}, ! Handle
  Sioux Falls Foss Field Ann Hum_n 99.6% Condns DP=>MCDB, ! Name
  -25.1,                                  ! Maximum Dry-Bulb Temperature {C}
  0,                                      ! Daily Dry-Bulb Temperature Range {deltaC}
  -29.4,                                  ! Humidity Indicating Conditions at Maximum Dry-Bulb {BasedOnField A3}
  96230,                                  ! Barometric Pressure {Pa}
  4.2,                                    ! Wind Speed {m/s}
  300,                                    ! Wind Direction {deg}
  0,                                      ! Sky Clearness
  0,                                      ! Rain Indicator
  0,                                      ! Snow Indicator
  21,                                     ! Day of Month
  1,                                      ! Month
  WinterDesignDay,                        ! Day Type
  0,                                      ! Daylight Saving Time Indicator
  Dewpoint,                               ! Humidity Indicating Type
  ,                                       ! Humidity Indicating Day Schedule Name
  DefaultMultipliers,                     ! Dry-Bulb Temperature Range Modifier Type
  ,                                       ! Dry-Bulb Temperature Range Modifier Schedule Name
  ASHRAEClearSky;                         ! Solar Model Indicator

OS:ComponentData,
  {a0823ea6-3f63-447a-9fbe-3e8b9abffe94}, ! Handle
  Component Data 1,                       ! Name
  {de57207f-d4ac-4d47-a1e6-9af07d12feca}, ! UUID
  {d666ba2c-17b6-41da-8d61-de4633fa08fe}, ! Version UUID
  1366310459,                             ! Creation Timestamp
  1366310459,                             ! Version Timestamp
  {b54239ab-3b1c-49f9-a4ea-3b6f642c7e74}; ! Name of Object 1

