
OS:Version,
  {3366172f-ca57-4bcc-9514-a8c6a4c11d81}, ! Handle
  0.9.3;                                  ! Version Identifier

OS:SizingPeriod:DesignDay,
  {56627800-7714-45e0-8d3f-01bf8a3f5825}, ! Handle
  Oakland Metropolitan Arpt Ann Clg 2% Condns WB=>MDB, ! Name
  22.5,                                   ! Maximum Dry-Bulb Temperature {C}
  7.4,                                    ! Daily Dry-Bulb Temperature Range {deltaC}
  18,                                     ! Humidity Indicating Conditions at Maximum Dry-Bulb {BasedOnField A3}
  101301,                                 ! Barometric Pressure {Pa}
  4.9,                                    ! Wind Speed {m/s}
  290,                                    ! Wind Direction {deg}
  0,                                      ! Sky Clearness
  0,                                      ! Rain Indicator
  0,                                      ! Snow Indicator
  21,                                     ! Day of Month
  8,                                      ! Month
  SummerDesignDay,                        ! Day Type
  0,                                      ! Daylight Saving Time Indicator
  Wetbulb,                                ! Humidity Indicating Type
  ,                                       ! Humidity Indicating Day Schedule Name
  DefaultMultipliers,                     ! Dry-Bulb Temperature Range Modifier Type
  ,                                       ! Dry-Bulb Temperature Range Modifier Schedule Name
  ASHRAETau,                              ! Solar Model Indicator
  ,                                       ! Beam Solar Day Schedule Name
  ,                                       ! Diffuse Solar Day Schedule Name
  0.367,                                  ! ASHRAE Taub {dimensionless}
  2.428;                                  ! ASHRAE Taud {dimensionless}

OS:ComponentData,
  {85ed7260-f772-4ab0-b3a1-a6cb000cb3ae}, ! Handle
  Component Data 1,                       ! Name
  {51ea57f3-6c6c-410e-86ce-bdf2178128a6}, ! UUID
  {512afb8f-cb60-49aa-8a31-dec8dce324d5}, ! Version UUID
  1366306523,                             ! Creation Timestamp
  1366306523,                             ! Version Timestamp
  {56627800-7714-45e0-8d3f-01bf8a3f5825}; ! Name of Object 1

