
OS:Version,
  {ee38c987-e408-40c6-9416-f1d3cad59a29}, ! Handle
  0.9.3;                                  ! Version Identifier

OS:SizingPeriod:DesignDay,
  {6110c0d6-c3f9-48fa-b78c-f898e8a806c0}, ! Handle
  Mankato Awos Ann Clg 2% Condns DB=>MWB, ! Name
  28,                                     ! Maximum Dry-Bulb Temperature {C}
  9.4,                                    ! Daily Dry-Bulb Temperature Range {deltaC}
  20.8,                                   ! Humidity Indicating Conditions at Maximum Dry-Bulb {BasedOnField A3}
  97644,                                  ! Barometric Pressure {Pa}
  6.1,                                    ! Wind Speed {m/s}
  190,                                    ! Wind Direction {deg}
  0,                                      ! Sky Clearness
  0,                                      ! Rain Indicator
  0,                                      ! Snow Indicator
  21,                                     ! Day of Month
  7,                                      ! Month
  SummerDesignDay,                        ! Day Type
  0,                                      ! Daylight Saving Time Indicator
  Wetbulb,                                ! Humidity Indicating Type
  ,                                       ! Humidity Indicating Day Schedule Name
  DefaultMultipliers,                     ! Dry-Bulb Temperature Range Modifier Type
  ,                                       ! Dry-Bulb Temperature Range Modifier Schedule Name
  ASHRAETau,                              ! Solar Model Indicator
  ,                                       ! Beam Solar Day Schedule Name
  ,                                       ! Diffuse Solar Day Schedule Name
  0.411,                                  ! ASHRAE Taub {dimensionless}
  2.205;                                  ! ASHRAE Taud {dimensionless}

OS:ComponentData,
  {0ab444b9-d55f-4993-aa6a-042dbe6aa31b}, ! Handle
  Component Data 1,                       ! Name
  {22c4e840-79e8-44b2-851e-d92dbcfab053}, ! UUID
  {cfb2318b-9c88-435f-8e6f-aba969b3c3c3}, ! Version UUID
  1366308293,                             ! Creation Timestamp
  1366308293,                             ! Version Timestamp
  {6110c0d6-c3f9-48fa-b78c-f898e8a806c0}; ! Name of Object 1

