
OS:Version,
  {1bd73d20-473a-43d2-9f1e-7a4279f42e59}, ! Handle
  0.9.3;                                  ! Version Identifier

OS:SizingPeriod:DesignDay,
  {ae840f28-9a82-42d0-bcbe-46ba0768d5aa}, ! Handle
  Pitt Greenville Arp Ann Clg 1% Condns WB=>MDB, ! Name
  32,                                     ! Maximum Dry-Bulb Temperature {C}
  10.1,                                   ! Daily Dry-Bulb Temperature Range {deltaC}
  25.4,                                   ! Humidity Indicating Conditions at Maximum Dry-Bulb {BasedOnField A3}
  101229,                                 ! Barometric Pressure {Pa}
  3.1,                                    ! Wind Speed {m/s}
  260,                                    ! Wind Direction {deg}
  0,                                      ! Sky Clearness
  0,                                      ! Rain Indicator
  0,                                      ! Snow Indicator
  21,                                     ! Day of Month
  7,                                      ! Month
  SummerDesignDay,                        ! Day Type
  0,                                      ! Daylight Saving Time Indicator
  Wetbulb,                                ! Humidity Indicating Type
  ,                                       ! Humidity Indicating Day Schedule Name
  DefaultMultipliers,                     ! Dry-Bulb Temperature Range Modifier Type
  ,                                       ! Dry-Bulb Temperature Range Modifier Schedule Name
  ASHRAETau,                              ! Solar Model Indicator
  ,                                       ! Beam Solar Day Schedule Name
  ,                                       ! Diffuse Solar Day Schedule Name
  0.601,                                  ! ASHRAE Taub {dimensionless}
  1.675;                                  ! ASHRAE Taud {dimensionless}

OS:ComponentData,
  {8af5e64e-f43f-4869-8705-fe8b948fe96f}, ! Handle
  Component Data 1,                       ! Name
  {a087dc2e-48e6-40be-bc92-56f3d967bef9}, ! UUID
  {ef9c0299-0085-485b-9577-fad8524776ee}, ! Version UUID
  1366308961,                             ! Creation Timestamp
  1366308961,                             ! Version Timestamp
  {ae840f28-9a82-42d0-bcbe-46ba0768d5aa}; ! Name of Object 1

