
OS:Version,
  {8b9ddb1f-73c0-41cd-a6af-b5506de39f0d}, ! Handle
  0.9.3;                                  ! Version Identifier

OS:SizingPeriod:DesignDay,
  {9073da9c-7b07-4c92-935b-2b3b3158a51b}, ! Handle
  Springfield Ann Clg 2% Condns DB=>MWB,  ! Name
  31.2,                                   ! Maximum Dry-Bulb Temperature {C}
  10.7,                                   ! Daily Dry-Bulb Temperature Range {deltaC}
  23.4,                                   ! Humidity Indicating Conditions at Maximum Dry-Bulb {BasedOnField A3}
  99099,                                  ! Barometric Pressure {Pa}
  4.6,                                    ! Wind Speed {m/s}
  230,                                    ! Wind Direction {deg}
  0,                                      ! Sky Clearness
  0,                                      ! Rain Indicator
  0,                                      ! Snow Indicator
  21,                                     ! Day of Month
  7,                                      ! Month
  SummerDesignDay,                        ! Day Type
  0,                                      ! Daylight Saving Time Indicator
  Wetbulb,                                ! Humidity Indicating Type
  ,                                       ! Humidity Indicating Day Schedule Name
  DefaultMultipliers,                     ! Dry-Bulb Temperature Range Modifier Type
  ,                                       ! Dry-Bulb Temperature Range Modifier Schedule Name
  ASHRAETau,                              ! Solar Model Indicator
  ,                                       ! Beam Solar Day Schedule Name
  ,                                       ! Diffuse Solar Day Schedule Name
  0.463,                                  ! ASHRAE Taub {dimensionless}
  2.022;                                  ! ASHRAE Taud {dimensionless}

OS:ComponentData,
  {7b7a06a6-4326-407d-8bea-bcde5409a334}, ! Handle
  Component Data 1,                       ! Name
  {3edc86bc-7596-40ea-a5b9-ec5ae1be27c0}, ! UUID
  {24e7ec85-12c1-49e2-b917-b4c1f067df14}, ! Version UUID
  1366307401,                             ! Creation Timestamp
  1366307401,                             ! Version Timestamp
  {9073da9c-7b07-4c92-935b-2b3b3158a51b}; ! Name of Object 1

