
OS:Version,
  {bed5d168-d923-4692-894d-9b1930fbd40f}, ! Handle
  0.9.3;                                  ! Version Identifier

OS:SizingPeriod:DesignDay,
  {66f0a3ae-bc7a-40b5-bd04-6ba29a6b0934}, ! Handle
  Winslow Ann Clg 2% Condns Enth=>MDB,    ! Name
  27.5,                                   ! Maximum Dry-Bulb Temperature {C}
  16.2,                                   ! Daily Dry-Bulb Temperature Range {deltaC}
  55300,                                  ! Humidity Indicating Conditions at Maximum Dry-Bulb {BasedOnField A3}
  84660,                                  ! Barometric Pressure {Pa}
  4.7,                                    ! Wind Speed {m/s}
  260,                                    ! Wind Direction {deg}
  0,                                      ! Sky Clearness
  0,                                      ! Rain Indicator
  0,                                      ! Snow Indicator
  21,                                     ! Day of Month
  7,                                      ! Month
  SummerDesignDay,                        ! Day Type
  0,                                      ! Daylight Saving Time Indicator
  Enthalpy,                               ! Humidity Indicating Type
  ,                                       ! Humidity Indicating Day Schedule Name
  DefaultMultipliers,                     ! Dry-Bulb Temperature Range Modifier Type
  ,                                       ! Dry-Bulb Temperature Range Modifier Schedule Name
  ASHRAETau,                              ! Solar Model Indicator
  ,                                       ! Beam Solar Day Schedule Name
  ,                                       ! Diffuse Solar Day Schedule Name
  0.444,                                  ! ASHRAE Taub {dimensionless}
  1.959;                                  ! ASHRAE Taud {dimensionless}

OS:ComponentData,
  {6629e174-eb42-49b4-9d0a-5ef1fc79e424}, ! Handle
  Component Data 1,                       ! Name
  {425a0998-5277-4fe1-9560-30f092c6c362}, ! UUID
  {1b146578-2701-40e4-84b0-527e92ee16b6}, ! Version UUID
  1366306329,                             ! Creation Timestamp
  1366306329,                             ! Version Timestamp
  {66f0a3ae-bc7a-40b5-bd04-6ba29a6b0934}; ! Name of Object 1

