
OS:Version,
  {abf2133b-245d-4ae7-a724-550df87429ea}, ! Handle
  0.9.3;                                  ! Version Identifier

OS:SizingPeriod:DesignDay,
  {b73d13db-779d-4216-8088-1a1b261587cb}, ! Handle
  Seattle Boeing Field  Isis Ann Clg 1% Condns Enth=>MDB, ! Name
  26.6,                                   ! Maximum Dry-Bulb Temperature {C}
  10.2,                                   ! Daily Dry-Bulb Temperature Range {deltaC}
  52000,                                  ! Humidity Indicating Conditions at Maximum Dry-Bulb {BasedOnField A3}
  101085,                                 ! Barometric Pressure {Pa}
  4.5,                                    ! Wind Speed {m/s}
  320,                                    ! Wind Direction {deg}
  0,                                      ! Sky Clearness
  0,                                      ! Rain Indicator
  0,                                      ! Snow Indicator
  21,                                     ! Day of Month
  8,                                      ! Month
  SummerDesignDay,                        ! Day Type
  0,                                      ! Daylight Saving Time Indicator
  Enthalpy,                               ! Humidity Indicating Type
  ,                                       ! Humidity Indicating Day Schedule Name
  DefaultMultipliers,                     ! Dry-Bulb Temperature Range Modifier Type
  ,                                       ! Dry-Bulb Temperature Range Modifier Schedule Name
  ASHRAETau,                              ! Solar Model Indicator
  ,                                       ! Beam Solar Day Schedule Name
  ,                                       ! Diffuse Solar Day Schedule Name
  0.359,                                  ! ASHRAE Taub {dimensionless}
  2.539;                                  ! ASHRAE Taud {dimensionless}

OS:ComponentData,
  {c01593b2-0fd3-4ed6-9e84-6ff402dffea4}, ! Handle
  Component Data 1,                       ! Name
  {daf943a1-4773-4fdc-b4e0-4d1c82780824}, ! UUID
  {3a7e28bd-d8f5-412a-84e3-4cbde6092813}, ! Version UUID
  1366311350,                             ! Creation Timestamp
  1366311350,                             ! Version Timestamp
  {b73d13db-779d-4216-8088-1a1b261587cb}; ! Name of Object 1

