
OS:Version,
  {4f860684-9bc3-41c1-a906-dbc07018d90f}, ! Handle
  0.9.3;                                  ! Version Identifier

OS:SizingPeriod:DesignDay,
  {5f747ebb-6548-43cd-8a11-9863d4a40f66}, ! Handle
  ST_PAUL Ann Hum_n 99.6% Condns DP=>MCDB, ! Name
  -16.1,                                  ! Maximum Dry-Bulb Temperature {C}
  0,                                      ! Daily Dry-Bulb Temperature Range {deltaC}
  -19.6,                                  ! Humidity Indicating Conditions at Maximum Dry-Bulb {BasedOnField A3}
  101241,                                 ! Barometric Pressure {Pa}
  8.2,                                    ! Wind Speed {m/s}
  0,                                      ! Wind Direction {deg}
  0,                                      ! Sky Clearness
  0,                                      ! Rain Indicator
  0,                                      ! Snow Indicator
  21,                                     ! Day of Month
  2,                                      ! Month
  WinterDesignDay,                        ! Day Type
  0,                                      ! Daylight Saving Time Indicator
  Dewpoint,                               ! Humidity Indicating Type
  ,                                       ! Humidity Indicating Day Schedule Name
  DefaultMultipliers,                     ! Dry-Bulb Temperature Range Modifier Type
  ,                                       ! Dry-Bulb Temperature Range Modifier Schedule Name
  ASHRAEClearSky;                         ! Solar Model Indicator

OS:ComponentData,
  {f8197bd8-8d80-443d-b9e8-ccf5c9a6f538}, ! Handle
  Component Data 1,                       ! Name
  {88f34c4d-3796-4a0c-b4de-401b1bb6dad0}, ! UUID
  {0d1e64cd-e6d9-4f9a-98e5-b854e2f540f4}, ! Version UUID
  1366305572,                             ! Creation Timestamp
  1366305572,                             ! Version Timestamp
  {5f747ebb-6548-43cd-8a11-9863d4a40f66}; ! Name of Object 1

