
OS:Version,
  {b6173e21-b73a-4a29-9eab-2e3a739652ce}, ! Handle
  0.9.3;                                  ! Version Identifier

OS:SizingPeriod:DesignDay,
  {73a7da0f-e4bc-4728-b506-3489736ddd07}, ! Handle
  Mount Washington Ann Clg .4% Condns Enth=>MDB, ! Name
  16.1,                                   ! Maximum Dry-Bulb Temperature {C}
  4.8,                                    ! Daily Dry-Bulb Temperature Range {deltaC}
  48600,                                  ! Humidity Indicating Conditions at Maximum Dry-Bulb {BasedOnField A3}
  80387,                                  ! Barometric Pressure {Pa}
  8,                                      ! Wind Speed {m/s}
  280,                                    ! Wind Direction {deg}
  0,                                      ! Sky Clearness
  0,                                      ! Rain Indicator
  0,                                      ! Snow Indicator
  21,                                     ! Day of Month
  7,                                      ! Month
  SummerDesignDay,                        ! Day Type
  0,                                      ! Daylight Saving Time Indicator
  Enthalpy,                               ! Humidity Indicating Type
  ,                                       ! Humidity Indicating Day Schedule Name
  DefaultMultipliers,                     ! Dry-Bulb Temperature Range Modifier Type
  ,                                       ! Dry-Bulb Temperature Range Modifier Schedule Name
  ASHRAETau,                              ! Solar Model Indicator
  ,                                       ! Beam Solar Day Schedule Name
  ,                                       ! Diffuse Solar Day Schedule Name
  0.335,                                  ! ASHRAE Taub {dimensionless}
  2.359;                                  ! ASHRAE Taud {dimensionless}

OS:ComponentData,
  {a8660791-5b6c-40ea-ae5f-8114fb3adb95}, ! Handle
  Component Data 1,                       ! Name
  {3fe4ed00-3def-48f2-b07c-606fbf01e979}, ! UUID
  {04c14b8c-bd50-4d37-8930-1215f6668474}, ! Version UUID
  1366309273,                             ! Creation Timestamp
  1366309273,                             ! Version Timestamp
  {73a7da0f-e4bc-4728-b506-3489736ddd07}; ! Name of Object 1

