
OS:Version,
  {5069ce1d-6547-460b-92f4-7e91e685bb70}, ! Handle
  0.9.3;                                  ! Version Identifier

OS:SizingPeriod:DesignDay,
  {3af58c34-1c48-4c5e-8cef-59595966aac7}, ! Handle
  Milwaukee Mitchell Intl Ap Ann Clg .4% Condns Enth=>MDB, ! Name
  30.5,                                   ! Maximum Dry-Bulb Temperature {C}
  8.7,                                    ! Daily Dry-Bulb Temperature Range {deltaC}
  77000,                                  ! Humidity Indicating Conditions at Maximum Dry-Bulb {BasedOnField A3}
  98886,                                  ! Barometric Pressure {Pa}
  6.4,                                    ! Wind Speed {m/s}
  240,                                    ! Wind Direction {deg}
  0,                                      ! Sky Clearness
  0,                                      ! Rain Indicator
  0,                                      ! Snow Indicator
  21,                                     ! Day of Month
  7,                                      ! Month
  SummerDesignDay,                        ! Day Type
  0,                                      ! Daylight Saving Time Indicator
  Enthalpy,                               ! Humidity Indicating Type
  ,                                       ! Humidity Indicating Day Schedule Name
  DefaultMultipliers,                     ! Dry-Bulb Temperature Range Modifier Type
  ,                                       ! Dry-Bulb Temperature Range Modifier Schedule Name
  ASHRAETau,                              ! Solar Model Indicator
  ,                                       ! Beam Solar Day Schedule Name
  ,                                       ! Diffuse Solar Day Schedule Name
  0.452,                                  ! ASHRAE Taub {dimensionless}
  2.061;                                  ! ASHRAE Taud {dimensionless}

OS:ComponentData,
  {d8f0ba7d-ea74-4fb0-a543-11931877204a}, ! Handle
  Component Data 1,                       ! Name
  {1f83b0e0-af89-4de9-9ebd-d2e44addf7f5}, ! UUID
  {f5cd4ab2-5a9b-4bad-bd39-1d2a1f1e616e}, ! Version UUID
  1366311558,                             ! Creation Timestamp
  1366311558,                             ! Version Timestamp
  {3af58c34-1c48-4c5e-8cef-59595966aac7}; ! Name of Object 1

