
OS:Version,
  {44798f37-b87c-47e7-9fe8-e56263be0c7e}, ! Handle
  0.9.3;                                  ! Version Identifier

OS:SizingPeriod:DesignDay,
  {ef1fe7f9-ee69-4211-83f2-7a5876438762}, ! Handle
  Worchester Regional Arpt Ann Clg .4% Condns WB=>MDB, ! Name
  27.7,                                   ! Maximum Dry-Bulb Temperature {C}
  9,                                      ! Daily Dry-Bulb Temperature Range {deltaC}
  23.4,                                   ! Humidity Indicating Conditions at Maximum Dry-Bulb {BasedOnField A3}
  97773,                                  ! Barometric Pressure {Pa}
  4.6,                                    ! Wind Speed {m/s}
  270,                                    ! Wind Direction {deg}
  0,                                      ! Sky Clearness
  0,                                      ! Rain Indicator
  0,                                      ! Snow Indicator
  21,                                     ! Day of Month
  7,                                      ! Month
  SummerDesignDay,                        ! Day Type
  0,                                      ! Daylight Saving Time Indicator
  Wetbulb,                                ! Humidity Indicating Type
  ,                                       ! Humidity Indicating Day Schedule Name
  DefaultMultipliers,                     ! Dry-Bulb Temperature Range Modifier Type
  ,                                       ! Dry-Bulb Temperature Range Modifier Schedule Name
  ASHRAETau,                              ! Solar Model Indicator
  ,                                       ! Beam Solar Day Schedule Name
  ,                                       ! Diffuse Solar Day Schedule Name
  0.454,                                  ! ASHRAE Taub {dimensionless}
  2.026;                                  ! ASHRAE Taud {dimensionless}

OS:ComponentData,
  {b1fe5d3c-115c-4284-8779-b0e2ee5465d7}, ! Handle
  Component Data 1,                       ! Name
  {0c15ac2c-ea8f-4a81-b4b3-8995bef40188}, ! UUID
  {8a8f1255-cbf6-41da-bc54-903d69cf7f7f}, ! Version UUID
  1366307831,                             ! Creation Timestamp
  1366307831,                             ! Version Timestamp
  {ef1fe7f9-ee69-4211-83f2-7a5876438762}; ! Name of Object 1

