
OS:Version,
  {20e957f1-bd7c-4052-9f11-e68546b3f1f2}, ! Handle
  0.9.3;                                  ! Version Identifier

OS:SizingPeriod:DesignDay,
  {61ffa36e-ef70-469f-9491-dc52ae1336da}, ! Handle
  New Orleans Intl Arpt Ann Clg 2% Condns Enth=>MDB, ! Name
  30.5,                                   ! Maximum Dry-Bulb Temperature {C}
  8.5,                                    ! Daily Dry-Bulb Temperature Range {deltaC}
  81400,                                  ! Humidity Indicating Conditions at Maximum Dry-Bulb {BasedOnField A3}
  101313,                                 ! Barometric Pressure {Pa}
  3.4,                                    ! Wind Speed {m/s}
  0,                                      ! Wind Direction {deg}
  0,                                      ! Sky Clearness
  0,                                      ! Rain Indicator
  0,                                      ! Snow Indicator
  21,                                     ! Day of Month
  8,                                      ! Month
  SummerDesignDay,                        ! Day Type
  0,                                      ! Daylight Saving Time Indicator
  Enthalpy,                               ! Humidity Indicating Type
  ,                                       ! Humidity Indicating Day Schedule Name
  DefaultMultipliers,                     ! Dry-Bulb Temperature Range Modifier Type
  ,                                       ! Dry-Bulb Temperature Range Modifier Schedule Name
  ASHRAETau,                              ! Solar Model Indicator
  ,                                       ! Beam Solar Day Schedule Name
  ,                                       ! Diffuse Solar Day Schedule Name
  0.553,                                  ! ASHRAE Taub {dimensionless}
  1.821;                                  ! ASHRAE Taud {dimensionless}

OS:ComponentData,
  {f36cb211-5fcd-46b3-88ff-30a0e4fdf33a}, ! Handle
  Component Data 1,                       ! Name
  {332f25f6-2147-46e5-85c4-3f8056d41954}, ! UUID
  {6b101389-20bb-45b3-a9c7-94ee37953119}, ! Version UUID
  1366307756,                             ! Creation Timestamp
  1366307756,                             ! Version Timestamp
  {61ffa36e-ef70-469f-9491-dc52ae1336da}; ! Name of Object 1

