
OS:Version,
  {1dae8b3a-fcca-48fe-82b2-04dcce496aa4}, ! Handle
  0.9.3;                                  ! Version Identifier

OS:SizingPeriod:DesignDay,
  {0fba5d69-5109-46a9-a79b-5d26fd99b951}, ! Handle
  Sault Ste Marie Sanderson Fie Ann Clg 1% Condns Enth=>MDB, ! Name
  25,                                     ! Maximum Dry-Bulb Temperature {C}
  11.7,                                   ! Daily Dry-Bulb Temperature Range {deltaC}
  62700,                                  ! Humidity Indicating Conditions at Maximum Dry-Bulb {BasedOnField A3}
  98722,                                  ! Barometric Pressure {Pa}
  4.2,                                    ! Wind Speed {m/s}
  220,                                    ! Wind Direction {deg}
  0,                                      ! Sky Clearness
  0,                                      ! Rain Indicator
  0,                                      ! Snow Indicator
  21,                                     ! Day of Month
  7,                                      ! Month
  SummerDesignDay,                        ! Day Type
  0,                                      ! Daylight Saving Time Indicator
  Enthalpy,                               ! Humidity Indicating Type
  ,                                       ! Humidity Indicating Day Schedule Name
  DefaultMultipliers,                     ! Dry-Bulb Temperature Range Modifier Type
  ,                                       ! Dry-Bulb Temperature Range Modifier Schedule Name
  ASHRAETau,                              ! Solar Model Indicator
  ,                                       ! Beam Solar Day Schedule Name
  ,                                       ! Diffuse Solar Day Schedule Name
  0.412,                                  ! ASHRAE Taub {dimensionless}
  2.194;                                  ! ASHRAE Taud {dimensionless}

