
OS:Version,
  {66d9c2da-0775-4a1f-b07b-e3eb77c10200}, ! Handle
  0.9.3;                                  ! Version Identifier

OS:SizingPeriod:DesignDay,
  {3a252623-261a-4919-b034-0825d7afd6a5}, ! Handle
  San Francisco Intl Ap Ann Clg 1% Condns DB=>MWB, ! Name
  25.7,                                   ! Maximum Dry-Bulb Temperature {C}
  8.5,                                    ! Daily Dry-Bulb Temperature Range {deltaC}
  16.7,                                   ! Humidity Indicating Conditions at Maximum Dry-Bulb {BasedOnField A3}
  101301,                                 ! Barometric Pressure {Pa}
  5.9,                                    ! Wind Speed {m/s}
  310,                                    ! Wind Direction {deg}
  0,                                      ! Sky Clearness
  0,                                      ! Rain Indicator
  0,                                      ! Snow Indicator
  21,                                     ! Day of Month
  8,                                      ! Month
  SummerDesignDay,                        ! Day Type
  0,                                      ! Daylight Saving Time Indicator
  Wetbulb,                                ! Humidity Indicating Type
  ,                                       ! Humidity Indicating Day Schedule Name
  DefaultMultipliers,                     ! Dry-Bulb Temperature Range Modifier Type
  ,                                       ! Dry-Bulb Temperature Range Modifier Schedule Name
  ASHRAETau,                              ! Solar Model Indicator
  ,                                       ! Beam Solar Day Schedule Name
  ,                                       ! Diffuse Solar Day Schedule Name
  0.365,                                  ! ASHRAE Taub {dimensionless}
  2.435;                                  ! ASHRAE Taud {dimensionless}

OS:ComponentData,
  {93615762-dc6c-4e4a-a002-7619e7a5f1b2}, ! Handle
  Component Data 1,                       ! Name
  {d8a2fedc-3c03-4929-b520-9dff4bd6748d}, ! UUID
  {708fea5e-327f-42a1-b646-631969281eca}, ! Version UUID
  1366306595,                             ! Creation Timestamp
  1366306595,                             ! Version Timestamp
  {3a252623-261a-4919-b034-0825d7afd6a5}; ! Name of Object 1

