
OS:Version,
  {add262f3-7d72-4cc9-9f93-ff9c30fae939}, ! Handle
  0.9.3;                                  ! Version Identifier

OS:SizingPeriod:DesignDay,
  {e4666c9d-3edb-4916-999c-dc39e3731bdf}, ! Handle
  Newport News Ann Clg 1% Condns Enth=>MDB, ! Name
  31.4,                                   ! Maximum Dry-Bulb Temperature {C}
  9.9,                                    ! Daily Dry-Bulb Temperature Range {deltaC}
  79700,                                  ! Humidity Indicating Conditions at Maximum Dry-Bulb {BasedOnField A3}
  101169,                                 ! Barometric Pressure {Pa}
  4.6,                                    ! Wind Speed {m/s}
  240,                                    ! Wind Direction {deg}
  0,                                      ! Sky Clearness
  0,                                      ! Rain Indicator
  0,                                      ! Snow Indicator
  21,                                     ! Day of Month
  7,                                      ! Month
  SummerDesignDay,                        ! Day Type
  0,                                      ! Daylight Saving Time Indicator
  Enthalpy,                               ! Humidity Indicating Type
  ,                                       ! Humidity Indicating Day Schedule Name
  DefaultMultipliers,                     ! Dry-Bulb Temperature Range Modifier Type
  ,                                       ! Dry-Bulb Temperature Range Modifier Schedule Name
  ASHRAETau,                              ! Solar Model Indicator
  ,                                       ! Beam Solar Day Schedule Name
  ,                                       ! Diffuse Solar Day Schedule Name
  0.597,                                  ! ASHRAE Taub {dimensionless}
  1.679;                                  ! ASHRAE Taud {dimensionless}

OS:ComponentData,
  {cf74e7e4-1b28-4088-91b0-68bbc50a3b6d}, ! Handle
  Component Data 1,                       ! Name
  {3dd9b7cf-1957-4d0c-8329-50e3676f2228}, ! UUID
  {3638cb8a-a73f-40e1-bab3-dc09e2ee0896}, ! Version UUID
  1366311119,                             ! Creation Timestamp
  1366311119,                             ! Version Timestamp
  {e4666c9d-3edb-4916-999c-dc39e3731bdf}; ! Name of Object 1

