
OS:Version,
  {ceb9a99e-4d53-4a52-8073-4f983cbeac64}, ! Handle
  0.9.3;                                  ! Version Identifier

OS:SizingPeriod:DesignDay,
  {da6c4deb-e787-481b-be9b-863d79416891}, ! Handle
  Parkersburg Wood County Ap Ann Hum_n 99.6% Condns DP=>MCDB, ! Name
  -13,                                    ! Maximum Dry-Bulb Temperature {C}
  0,                                      ! Daily Dry-Bulb Temperature Range {deltaC}
  -19.3,                                  ! Humidity Indicating Conditions at Maximum Dry-Bulb {BasedOnField A3}
  98322,                                  ! Barometric Pressure {Pa}
  2.6,                                    ! Wind Speed {m/s}
  240,                                    ! Wind Direction {deg}
  0,                                      ! Sky Clearness
  0,                                      ! Rain Indicator
  0,                                      ! Snow Indicator
  21,                                     ! Day of Month
  1,                                      ! Month
  WinterDesignDay,                        ! Day Type
  0,                                      ! Daylight Saving Time Indicator
  Dewpoint,                               ! Humidity Indicating Type
  ,                                       ! Humidity Indicating Day Schedule Name
  DefaultMultipliers,                     ! Dry-Bulb Temperature Range Modifier Type
  ,                                       ! Dry-Bulb Temperature Range Modifier Schedule Name
  ASHRAEClearSky;                         ! Solar Model Indicator

OS:ComponentData,
  {fd9651b5-820b-4505-b92d-920f88c5e6d0}, ! Handle
  Component Data 1,                       ! Name
  {fded320f-ceb8-43e8-87a6-c232c44c5ed4}, ! UUID
  {1dfd4162-757b-45fc-b0f6-2147fd7f2625}, ! Version UUID
  1366311675,                             ! Creation Timestamp
  1366311675,                             ! Version Timestamp
  {da6c4deb-e787-481b-be9b-863d79416891}; ! Name of Object 1

