
OS:Version,
  {b8f17c87-c0eb-423b-906b-54e0d45412ea}, ! Handle
  0.9.3;                                  ! Version Identifier

OS:SizingPeriod:DesignDay,
  {db29e9a1-7126-47f4-910e-d426a336e011}, ! Handle
  Presque Isle Municip Ann Hum_n 99% Condns DP=>MCDB, ! Name
  -24.2,                                  ! Maximum Dry-Bulb Temperature {C}
  0,                                      ! Daily Dry-Bulb Temperature Range {deltaC}
  -31.3,                                  ! Humidity Indicating Conditions at Maximum Dry-Bulb {BasedOnField A3}
  99382,                                  ! Barometric Pressure {Pa}
  1.4,                                    ! Wind Speed {m/s}
  290,                                    ! Wind Direction {deg}
  0,                                      ! Sky Clearness
  0,                                      ! Rain Indicator
  0,                                      ! Snow Indicator
  21,                                     ! Day of Month
  1,                                      ! Month
  WinterDesignDay,                        ! Day Type
  0,                                      ! Daylight Saving Time Indicator
  Dewpoint,                               ! Humidity Indicating Type
  ,                                       ! Humidity Indicating Day Schedule Name
  DefaultMultipliers,                     ! Dry-Bulb Temperature Range Modifier Type
  ,                                       ! Dry-Bulb Temperature Range Modifier Schedule Name
  ASHRAEClearSky;                         ! Solar Model Indicator

OS:ComponentData,
  {04f49420-fe76-479c-8470-b2e9c841765a}, ! Handle
  Component Data 1,                       ! Name
  {56f88389-84be-46ef-a4f3-2cf8955e4933}, ! UUID
  {e56048b1-c013-4106-85f8-c7aa90aef364}, ! Version UUID
  1366307918,                             ! Creation Timestamp
  1366307918,                             ! Version Timestamp
  {db29e9a1-7126-47f4-910e-d426a336e011}; ! Name of Object 1

