
OS:Version,
  {c560ca9b-877c-4958-b3c4-23e2e1c18488}, ! Handle
  0.9.3;                                  ! Version Identifier

OS:SizingPeriod:DesignDay,
  {62a29450-1ed9-4cf4-a767-18d3a90bb01d}, ! Handle
  Willmar Ann Htg Wind 99% Condns WS=>MCDB, ! Name
  -10.8,                                  ! Maximum Dry-Bulb Temperature {C}
  0,                                      ! Daily Dry-Bulb Temperature Range {deltaC}
  -10.8,                                  ! Humidity Indicating Conditions at Maximum Dry-Bulb {BasedOnField A3}
  97249,                                  ! Barometric Pressure {Pa}
  11.9,                                   ! Wind Speed {m/s}
  300,                                    ! Wind Direction {deg}
  0,                                      ! Sky Clearness
  0,                                      ! Rain Indicator
  0,                                      ! Snow Indicator
  21,                                     ! Day of Month
  1,                                      ! Month
  WinterDesignDay,                        ! Day Type
  0,                                      ! Daylight Saving Time Indicator
  Wetbulb,                                ! Humidity Indicating Type
  ,                                       ! Humidity Indicating Day Schedule Name
  DefaultMultipliers,                     ! Dry-Bulb Temperature Range Modifier Type
  ,                                       ! Dry-Bulb Temperature Range Modifier Schedule Name
  ASHRAEClearSky;                         ! Solar Model Indicator

OS:ComponentData,
  {ad35a2a6-ca42-48ba-b50a-c7f1ca323510}, ! Handle
  Component Data 1,                       ! Name
  {ba624833-e79a-4679-8f3c-e8ad81febbde}, ! UUID
  {dd1a23c0-a2f4-4c2b-aab3-9c5bae120142}, ! Version UUID
  1366308456,                             ! Creation Timestamp
  1366308456,                             ! Version Timestamp
  {62a29450-1ed9-4cf4-a767-18d3a90bb01d}; ! Name of Object 1

