
OS:Version,
  {9054bcd3-d195-4114-b31c-aadb1f9f110a}, ! Handle
  0.9.3;                                  ! Version Identifier

OS:SizingPeriod:DesignDay,
  {59aa31dc-4113-40c8-9c08-afccbe8130ef}, ! Handle
  Sitka Japonski Ap Ann Htg Wind 99.6% Condns WS=>MCDB, ! Name
  5.9,                                    ! Maximum Dry-Bulb Temperature {C}
  0,                                      ! Daily Dry-Bulb Temperature Range {deltaC}
  5.9,                                    ! Humidity Indicating Conditions at Maximum Dry-Bulb {BasedOnField A3}
  101277,                                 ! Barometric Pressure {Pa}
  13,                                     ! Wind Speed {m/s}
  80,                                     ! Wind Direction {deg}
  0,                                      ! Sky Clearness
  0,                                      ! Rain Indicator
  0,                                      ! Snow Indicator
  21,                                     ! Day of Month
  1,                                      ! Month
  WinterDesignDay,                        ! Day Type
  0,                                      ! Daylight Saving Time Indicator
  Wetbulb,                                ! Humidity Indicating Type
  ,                                       ! Humidity Indicating Day Schedule Name
  DefaultMultipliers,                     ! Dry-Bulb Temperature Range Modifier Type
  ,                                       ! Dry-Bulb Temperature Range Modifier Schedule Name
  ASHRAEClearSky;                         ! Solar Model Indicator

OS:ComponentData,
  {a7cc14c6-d572-4ce1-89bd-47c9e5863659}, ! Handle
  Component Data 1,                       ! Name
  {9995b9d6-c13b-48c3-8784-971e33d21b11}, ! UUID
  {4b1de985-5297-43e8-9679-60a2b4f66919}, ! Version UUID
  1366305549,                             ! Creation Timestamp
  1366305549,                             ! Version Timestamp
  {59aa31dc-4113-40c8-9c08-afccbe8130ef}; ! Name of Object 1

