
OS:Version,
  {9a32c70f-285f-4b56-945f-828458b0fe68}, ! Handle
  0.9.3;                                  ! Version Identifier

OS:SizingPeriod:DesignDay,
  {0388709e-253f-4009-93ca-027043b385e5}, ! Handle
  Norfolk Karl Stefan Mem Arpt Ann Clg 2% Condns WB=>MDB, ! Name
  29.6,                                   ! Maximum Dry-Bulb Temperature {C}
  11.9,                                   ! Daily Dry-Bulb Temperature Range {deltaC}
  23.5,                                   ! Humidity Indicating Conditions at Maximum Dry-Bulb {BasedOnField A3}
  95782,                                  ! Barometric Pressure {Pa}
  6.5,                                    ! Wind Speed {m/s}
  190,                                    ! Wind Direction {deg}
  0,                                      ! Sky Clearness
  0,                                      ! Rain Indicator
  0,                                      ! Snow Indicator
  21,                                     ! Day of Month
  7,                                      ! Month
  SummerDesignDay,                        ! Day Type
  0,                                      ! Daylight Saving Time Indicator
  Wetbulb,                                ! Humidity Indicating Type
  ,                                       ! Humidity Indicating Day Schedule Name
  DefaultMultipliers,                     ! Dry-Bulb Temperature Range Modifier Type
  ,                                       ! Dry-Bulb Temperature Range Modifier Schedule Name
  ASHRAETau,                              ! Solar Model Indicator
  ,                                       ! Beam Solar Day Schedule Name
  ,                                       ! Diffuse Solar Day Schedule Name
  0.402,                                  ! ASHRAE Taub {dimensionless}
  2.247;                                  ! ASHRAE Taud {dimensionless}

OS:ComponentData,
  {8683e2f8-428a-4c77-a599-7717828bc708}, ! Handle
  Component Data 1,                       ! Name
  {ecd8c17d-9519-4ecf-a5bc-97b3f4e1e736}, ! UUID
  {e422c406-8b76-4093-8816-b4baf95129c2}, ! Version UUID
  1366309149,                             ! Creation Timestamp
  1366309149,                             ! Version Timestamp
  {0388709e-253f-4009-93ca-027043b385e5}; ! Name of Object 1

