
OS:Version,
  {0941db46-684c-4b10-8a49-a974fc67c643}, ! Handle
  0.9.3;                                  ! Version Identifier

OS:SizingPeriod:DesignDay,
  {5f7b8492-9236-4a05-910d-3427ea629f15}, ! Handle
  Tonopah Ann Htg 99% Condns DB,          ! Name
  -10,                                    ! Maximum Dry-Bulb Temperature {C}
  0,                                      ! Daily Dry-Bulb Temperature Range {deltaC}
  -10,                                    ! Humidity Indicating Conditions at Maximum Dry-Bulb {BasedOnField A3}
  82970,                                  ! Barometric Pressure {Pa}
  3.9,                                    ! Wind Speed {m/s}
  350,                                    ! Wind Direction {deg}
  0,                                      ! Sky Clearness
  0,                                      ! Rain Indicator
  0,                                      ! Snow Indicator
  21,                                     ! Day of Month
  12,                                     ! Month
  WinterDesignDay,                        ! Day Type
  0,                                      ! Daylight Saving Time Indicator
  Wetbulb,                                ! Humidity Indicating Type
  ,                                       ! Humidity Indicating Day Schedule Name
  DefaultMultipliers,                     ! Dry-Bulb Temperature Range Modifier Type
  ,                                       ! Dry-Bulb Temperature Range Modifier Schedule Name
  ASHRAEClearSky;                         ! Solar Model Indicator

OS:ComponentData,
  {74f25414-2fb4-4406-aab0-1e8b111b4598}, ! Handle
  Component Data 1,                       ! Name
  {edd03e39-0aaf-479b-8536-b3d05bd2b673}, ! UUID
  {7764c7fd-66d9-4dc1-a419-8ac635114a1f}, ! Version UUID
  1366309549,                             ! Creation Timestamp
  1366309549,                             ! Version Timestamp
  {5f7b8492-9236-4a05-910d-3427ea629f15}; ! Name of Object 1

