
OS:Version,
  {0c9da59f-e5dd-44c6-967e-ca15f5157bca}, ! Handle
  0.9.3;                                  ! Version Identifier

OS:SizingPeriod:DesignDay,
  {570564f8-2113-4cbc-a9ad-bd056c150129}, ! Handle
  Marietta Dobbins Afb Ann Clg .4% Condns DB=>MWB, ! Name
  34.2,                                   ! Maximum Dry-Bulb Temperature {C}
  9.6,                                    ! Daily Dry-Bulb Temperature Range {deltaC}
  23.3,                                   ! Humidity Indicating Conditions at Maximum Dry-Bulb {BasedOnField A3}
  97423,                                  ! Barometric Pressure {Pa}
  2.7,                                    ! Wind Speed {m/s}
  300,                                    ! Wind Direction {deg}
  0,                                      ! Sky Clearness
  0,                                      ! Rain Indicator
  0,                                      ! Snow Indicator
  21,                                     ! Day of Month
  7,                                      ! Month
  SummerDesignDay,                        ! Day Type
  0,                                      ! Daylight Saving Time Indicator
  Wetbulb,                                ! Humidity Indicating Type
  ,                                       ! Humidity Indicating Day Schedule Name
  DefaultMultipliers,                     ! Dry-Bulb Temperature Range Modifier Type
  ,                                       ! Dry-Bulb Temperature Range Modifier Schedule Name
  ASHRAETau,                              ! Solar Model Indicator
  ,                                       ! Beam Solar Day Schedule Name
  ,                                       ! Diffuse Solar Day Schedule Name
  0.558,                                  ! ASHRAE Taub {dimensionless}
  1.77;                                   ! ASHRAE Taud {dimensionless}

OS:ComponentData,
  {b81ab618-d428-4837-b338-8c28935eed08}, ! Handle
  Component Data 1,                       ! Name
  {7761dbd2-708a-428f-b48b-1759365f4545}, ! UUID
  {1327784b-c079-45b7-8936-3fa97bbc6483}, ! Version UUID
  1366307031,                             ! Creation Timestamp
  1366307031,                             ! Version Timestamp
  {570564f8-2113-4cbc-a9ad-bd056c150129}; ! Name of Object 1

