
OS:Version,
  {f98b288c-d5d5-4bb2-bc9e-4185cd2b07fd}, ! Handle
  0.9.3;                                  ! Version Identifier

OS:SizingPeriod:DesignDay,
  {5bbb4bca-293a-48c4-8cb6-1b218e215008}, ! Handle
  Marshall Ryan Awos Ann Htg Wind 99% Condns WS=>MCDB, ! Name
  -8.7,                                   ! Maximum Dry-Bulb Temperature {C}
  0,                                      ! Daily Dry-Bulb Temperature Range {deltaC}
  -8.7,                                   ! Humidity Indicating Conditions at Maximum Dry-Bulb {BasedOnField A3}
  97086,                                  ! Barometric Pressure {Pa}
  15.1,                                   ! Wind Speed {m/s}
  320,                                    ! Wind Direction {deg}
  0,                                      ! Sky Clearness
  0,                                      ! Rain Indicator
  0,                                      ! Snow Indicator
  21,                                     ! Day of Month
  1,                                      ! Month
  WinterDesignDay,                        ! Day Type
  0,                                      ! Daylight Saving Time Indicator
  Wetbulb,                                ! Humidity Indicating Type
  ,                                       ! Humidity Indicating Day Schedule Name
  DefaultMultipliers,                     ! Dry-Bulb Temperature Range Modifier Type
  ,                                       ! Dry-Bulb Temperature Range Modifier Schedule Name
  ASHRAEClearSky;                         ! Solar Model Indicator

OS:ComponentData,
  {abdcb0ad-8c75-47ee-b575-80c501f7dc4d}, ! Handle
  Component Data 1,                       ! Name
  {1009e8b0-f658-46de-9705-70b8bf4ea774}, ! UUID
  {56ff1651-3413-4679-9708-5c46626a920f}, ! Version UUID
  1366308299,                             ! Creation Timestamp
  1366308299,                             ! Version Timestamp
  {5bbb4bca-293a-48c4-8cb6-1b218e215008}; ! Name of Object 1

