
OS:Version,
  {67ccd129-54a6-46f7-bc4c-6916357947aa}, ! Handle
  0.9.3;                                  ! Version Identifier

OS:SizingPeriod:DesignDay,
  {d8178b2a-46f3-4cc3-80d8-960243b61b6b}, ! Handle
  New Orleans/Lakefront Ann Clg 1% Condns DP=>MDB, ! Name
  28.8,                                   ! Maximum Dry-Bulb Temperature {C}
  8.5,                                    ! Daily Dry-Bulb Temperature Range {deltaC}
  25.5,                                   ! Humidity Indicating Conditions at Maximum Dry-Bulb {BasedOnField A3}
  101289,                                 ! Barometric Pressure {Pa}
  3.4,                                    ! Wind Speed {m/s}
  0,                                      ! Wind Direction {deg}
  0,                                      ! Sky Clearness
  0,                                      ! Rain Indicator
  0,                                      ! Snow Indicator
  21,                                     ! Day of Month
  8,                                      ! Month
  SummerDesignDay,                        ! Day Type
  0,                                      ! Daylight Saving Time Indicator
  Dewpoint,                               ! Humidity Indicating Type
  ,                                       ! Humidity Indicating Day Schedule Name
  DefaultMultipliers,                     ! Dry-Bulb Temperature Range Modifier Type
  ,                                       ! Dry-Bulb Temperature Range Modifier Schedule Name
  ASHRAETau,                              ! Solar Model Indicator
  ,                                       ! Beam Solar Day Schedule Name
  ,                                       ! Diffuse Solar Day Schedule Name
  0.553,                                  ! ASHRAE Taub {dimensionless}
  1.821;                                  ! ASHRAE Taud {dimensionless}

OS:ComponentData,
  {dbcc31c5-d828-4bbe-b0d1-e8e023e14263}, ! Handle
  Component Data 1,                       ! Name
  {3dfa787c-1f12-4af0-ab6c-224c05921c20}, ! UUID
  {7016bca8-13d7-44b9-9d28-1daeb1a1531d}, ! Version UUID
  1366307752,                             ! Creation Timestamp
  1366307752,                             ! Version Timestamp
  {d8178b2a-46f3-4cc3-80d8-960243b61b6b}; ! Name of Object 1

