
OS:Version,
  {fc6157e2-b3f1-4caf-82e3-f579d0868abb}, ! Handle
  0.9.3;                                  ! Version Identifier

OS:SizingPeriod:DesignDay,
  {7d656f90-b036-46c8-9bf0-c90d4f32da8a}, ! Handle
  Rogers  Awos Ann Htg Wind 99% Condns WS=>MCDB, ! Name
  10.2,                                   ! Maximum Dry-Bulb Temperature {C}
  0,                                      ! Daily Dry-Bulb Temperature Range {deltaC}
  10.2,                                   ! Humidity Indicating Conditions at Maximum Dry-Bulb {BasedOnField A3}
  96438,                                  ! Barometric Pressure {Pa}
  9.8,                                    ! Wind Speed {m/s}
  310,                                    ! Wind Direction {deg}
  0,                                      ! Sky Clearness
  0,                                      ! Rain Indicator
  0,                                      ! Snow Indicator
  21,                                     ! Day of Month
  1,                                      ! Month
  WinterDesignDay,                        ! Day Type
  0,                                      ! Daylight Saving Time Indicator
  Wetbulb,                                ! Humidity Indicating Type
  ,                                       ! Humidity Indicating Day Schedule Name
  DefaultMultipliers,                     ! Dry-Bulb Temperature Range Modifier Type
  ,                                       ! Dry-Bulb Temperature Range Modifier Schedule Name
  ASHRAEClearSky;                         ! Solar Model Indicator

OS:ComponentData,
  {0488f7fc-4651-4397-bed6-97a1568fd99e}, ! Handle
  Component Data 1,                       ! Name
  {5bd5499d-2375-4db3-a1c3-3f34b0da6732}, ! UUID
  {9c5e4957-9cba-4390-b3d3-b00633de3257}, ! Version UUID
  1366306243,                             ! Creation Timestamp
  1366306243,                             ! Version Timestamp
  {7d656f90-b036-46c8-9bf0-c90d4f32da8a}; ! Name of Object 1

