
OS:Version,
  {5642db29-bb08-4675-9705-f26cc0f43839}, ! Handle
  0.9.3;                                  ! Version Identifier

OS:SizingPeriod:DesignDay,
  {dd564d53-9c5c-4c75-ad3e-bbd51ec658c0}, ! Handle
  Sterling Rockfalls Ann Htg Wind 99% Condns WS=>MCDB, ! Name
  -6.7,                                   ! Maximum Dry-Bulb Temperature {C}
  0,                                      ! Daily Dry-Bulb Temperature Range {deltaC}
  -6.7,                                   ! Humidity Indicating Conditions at Maximum Dry-Bulb {BasedOnField A3}
  98981,                                  ! Barometric Pressure {Pa}
  11.6,                                   ! Wind Speed {m/s}
  280,                                    ! Wind Direction {deg}
  0,                                      ! Sky Clearness
  0,                                      ! Rain Indicator
  0,                                      ! Snow Indicator
  21,                                     ! Day of Month
  1,                                      ! Month
  WinterDesignDay,                        ! Day Type
  0,                                      ! Daylight Saving Time Indicator
  Wetbulb,                                ! Humidity Indicating Type
  ,                                       ! Humidity Indicating Day Schedule Name
  DefaultMultipliers,                     ! Dry-Bulb Temperature Range Modifier Type
  ,                                       ! Dry-Bulb Temperature Range Modifier Schedule Name
  ASHRAEClearSky;                         ! Solar Model Indicator

OS:ComponentData,
  {debddd19-a81a-4fe8-a612-90d5458c6bd9}, ! Handle
  Component Data 1,                       ! Name
  {aa8b632c-7927-48b0-b670-8f55b72e0026}, ! UUID
  {1e3d8eaf-1e14-4e68-9d95-6aa47f17be7e}, ! Version UUID
  1366307412,                             ! Creation Timestamp
  1366307412,                             ! Version Timestamp
  {dd564d53-9c5c-4c75-ad3e-bbd51ec658c0}; ! Name of Object 1

