
OS:Version,
  {d4360153-2a53-4b4d-b7c2-2ca78fee82d2}, ! Handle
  0.9.3;                                  ! Version Identifier

OS:SizingPeriod:DesignDay,
  {702e06a3-7a53-4588-8563-0bae0f5b8269}, ! Handle
  Spokane/Fairchild AFB Ann Clg 2% Condns DP=>MDB, ! Name
  19.7,                                   ! Maximum Dry-Bulb Temperature {C}
  14.6,                                   ! Daily Dry-Bulb Temperature Range {deltaC}
  12.3,                                   ! Humidity Indicating Conditions at Maximum Dry-Bulb {BasedOnField A3}
  92634,                                  ! Barometric Pressure {Pa}
  4.1,                                    ! Wind Speed {m/s}
  240,                                    ! Wind Direction {deg}
  0,                                      ! Sky Clearness
  0,                                      ! Rain Indicator
  0,                                      ! Snow Indicator
  21,                                     ! Day of Month
  7,                                      ! Month
  SummerDesignDay,                        ! Day Type
  0,                                      ! Daylight Saving Time Indicator
  Dewpoint,                               ! Humidity Indicating Type
  ,                                       ! Humidity Indicating Day Schedule Name
  DefaultMultipliers,                     ! Dry-Bulb Temperature Range Modifier Type
  ,                                       ! Dry-Bulb Temperature Range Modifier Schedule Name
  ASHRAETau,                              ! Solar Model Indicator
  ,                                       ! Beam Solar Day Schedule Name
  ,                                       ! Diffuse Solar Day Schedule Name
  0.354,                                  ! ASHRAE Taub {dimensionless}
  2.385;                                  ! ASHRAE Taud {dimensionless}

OS:ComponentData,
  {4a9e95cb-f193-4214-8422-9c710bda4e25}, ! Handle
  Component Data 1,                       ! Name
  {19a2e5b6-7d3a-45d4-a22b-16006505d687}, ! UUID
  {9fc467e0-5ade-4d18-940f-0b1c3861dda9}, ! Version UUID
  1366311391,                             ! Creation Timestamp
  1366311391,                             ! Version Timestamp
  {702e06a3-7a53-4588-8563-0bae0f5b8269}; ! Name of Object 1

