
OS:Version,
  {1425db15-40c1-4886-b288-d2d0716619e1}, ! Handle
  0.9.3;                                  ! Version Identifier

OS:SizingPeriod:DesignDay,
  {cc1c3ecc-d615-4eae-9444-ddb28c1a1ad3}, ! Handle
  Pellston Emmet County Ap Ann Clg .4% Condns Enth=>MDB, ! Name
  28.6,                                   ! Maximum Dry-Bulb Temperature {C}
  13.1,                                   ! Daily Dry-Bulb Temperature Range {deltaC}
  70300,                                  ! Humidity Indicating Conditions at Maximum Dry-Bulb {BasedOnField A3}
  98733,                                  ! Barometric Pressure {Pa}
  5.6,                                    ! Wind Speed {m/s}
  250,                                    ! Wind Direction {deg}
  0,                                      ! Sky Clearness
  0,                                      ! Rain Indicator
  0,                                      ! Snow Indicator
  21,                                     ! Day of Month
  7,                                      ! Month
  SummerDesignDay,                        ! Day Type
  0,                                      ! Daylight Saving Time Indicator
  Enthalpy,                               ! Humidity Indicating Type
  ,                                       ! Humidity Indicating Day Schedule Name
  DefaultMultipliers,                     ! Dry-Bulb Temperature Range Modifier Type
  ,                                       ! Dry-Bulb Temperature Range Modifier Schedule Name
  ASHRAETau,                              ! Solar Model Indicator
  ,                                       ! Beam Solar Day Schedule Name
  ,                                       ! Diffuse Solar Day Schedule Name
  0.414,                                  ! ASHRAE Taub {dimensionless}
  2.197;                                  ! ASHRAE Taud {dimensionless}

OS:ComponentData,
  {83958f8e-e3c6-4a2e-9427-98fa75419dd5}, ! Handle
  Component Data 1,                       ! Name
  {ca4f58c0-972e-413a-b631-c06cbc1a84bd}, ! UUID
  {2c2c726a-289d-45e1-881b-eca56f56a633}, ! Version UUID
  1366308089,                             ! Creation Timestamp
  1366308089,                             ! Version Timestamp
  {cc1c3ecc-d615-4eae-9444-ddb28c1a1ad3}; ! Name of Object 1

