
OS:Version,
  {bc9b254b-88dd-4a3a-9a9b-280560a8f825}, ! Handle
  0.9.3;                                  ! Version Identifier

OS:SizingPeriod:DesignDay,
  {85e2a1ab-7c82-4004-ab27-c54c0a918253}, ! Handle
  Macdill Afb Ann Hum_n 99.6% Condns DP=>MCDB, ! Name
  7.9,                                    ! Maximum Dry-Bulb Temperature {C}
  0,                                      ! Daily Dry-Bulb Temperature Range {deltaC}
  -4.9,                                   ! Humidity Indicating Conditions at Maximum Dry-Bulb {BasedOnField A3}
  101229,                                 ! Barometric Pressure {Pa}
  2.5,                                    ! Wind Speed {m/s}
  10,                                     ! Wind Direction {deg}
  0,                                      ! Sky Clearness
  0,                                      ! Rain Indicator
  0,                                      ! Snow Indicator
  21,                                     ! Day of Month
  1,                                      ! Month
  WinterDesignDay,                        ! Day Type
  0,                                      ! Daylight Saving Time Indicator
  Dewpoint,                               ! Humidity Indicating Type
  ,                                       ! Humidity Indicating Day Schedule Name
  DefaultMultipliers,                     ! Dry-Bulb Temperature Range Modifier Type
  ,                                       ! Dry-Bulb Temperature Range Modifier Schedule Name
  ASHRAEClearSky;                         ! Solar Model Indicator

OS:ComponentData,
  {9d36e6a7-d5be-411e-8f6b-0c5bfcdfcfd5}, ! Handle
  Component Data 1,                       ! Name
  {10b01654-615b-4e40-968b-dcd069906aa8}, ! UUID
  {a3bda9c8-8029-4fe8-a366-1ae19126b626}, ! Version UUID
  1366306843,                             ! Creation Timestamp
  1366306843,                             ! Version Timestamp
  {85e2a1ab-7c82-4004-ab27-c54c0a918253}; ! Name of Object 1

