
OS:Version,
  {aaf8bcc7-cd08-4a1d-a42d-3c7e0ac97099}, ! Handle
  0.9.3;                                  ! Version Identifier

OS:SizingPeriod:DesignDay,
  {b32ae979-2d24-456b-b90f-46f560e64205}, ! Handle
  San Angelo Mathis Field Ann Htg 99% Condns DB, ! Name
  -3.9,                                   ! Maximum Dry-Bulb Temperature {C}
  0,                                      ! Daily Dry-Bulb Temperature Range {deltaC}
  -3.9,                                   ! Humidity Indicating Conditions at Maximum Dry-Bulb {BasedOnField A3}
  94503,                                  ! Barometric Pressure {Pa}
  4.1,                                    ! Wind Speed {m/s}
  40,                                     ! Wind Direction {deg}
  0,                                      ! Sky Clearness
  0,                                      ! Rain Indicator
  0,                                      ! Snow Indicator
  21,                                     ! Day of Month
  1,                                      ! Month
  WinterDesignDay,                        ! Day Type
  0,                                      ! Daylight Saving Time Indicator
  Wetbulb,                                ! Humidity Indicating Type
  ,                                       ! Humidity Indicating Day Schedule Name
  DefaultMultipliers,                     ! Dry-Bulb Temperature Range Modifier Type
  ,                                       ! Dry-Bulb Temperature Range Modifier Schedule Name
  ASHRAEClearSky;                         ! Solar Model Indicator

OS:ComponentData,
  {f0b27a84-5162-4f02-abe3-fb2e05779b6b}, ! Handle
  Component Data 1,                       ! Name
  {3daa8c4b-cee0-40c6-bae9-59cd06bda025}, ! UUID
  {62d5cadb-6ebc-4361-ac6f-2cbf166f4bce}, ! Version UUID
  1366310872,                             ! Creation Timestamp
  1366310872,                             ! Version Timestamp
  {b32ae979-2d24-456b-b90f-46f560e64205}; ! Name of Object 1

