
OS:Version,
  {3f636724-67b8-487f-a04b-e9f26f4b9a09}, ! Handle
  0.9.3;                                  ! Version Identifier

OS:SizingPeriod:DesignDay,
  {55276eb2-3ce1-4c41-8130-cd67dff1fc45}, ! Handle
  Quincy Muni Baldwin Fld Ann Clg 2% Condns Enth=>MDB, ! Name
  29.4,                                   ! Maximum Dry-Bulb Temperature {C}
  10.4,                                   ! Daily Dry-Bulb Temperature Range {deltaC}
  74600,                                  ! Humidity Indicating Conditions at Maximum Dry-Bulb {BasedOnField A3}
  98557,                                  ! Barometric Pressure {Pa}
  4.8,                                    ! Wind Speed {m/s}
  220,                                    ! Wind Direction {deg}
  0,                                      ! Sky Clearness
  0,                                      ! Rain Indicator
  0,                                      ! Snow Indicator
  21,                                     ! Day of Month
  7,                                      ! Month
  SummerDesignDay,                        ! Day Type
  0,                                      ! Daylight Saving Time Indicator
  Enthalpy,                               ! Humidity Indicating Type
  ,                                       ! Humidity Indicating Day Schedule Name
  DefaultMultipliers,                     ! Dry-Bulb Temperature Range Modifier Type
  ,                                       ! Dry-Bulb Temperature Range Modifier Schedule Name
  ASHRAETau,                              ! Solar Model Indicator
  ,                                       ! Beam Solar Day Schedule Name
  ,                                       ! Diffuse Solar Day Schedule Name
  0.446,                                  ! ASHRAE Taub {dimensionless}
  2.091;                                  ! ASHRAE Taud {dimensionless}

OS:ComponentData,
  {0ae1384f-692a-4d85-87e5-6f9114a129f9}, ! Handle
  Component Data 1,                       ! Name
  {67f3d43e-4658-498e-a15d-405b7e38a60f}, ! UUID
  {30ffa08d-43ea-4867-8923-e869b6ccf6e9}, ! Version UUID
  1366307390,                             ! Creation Timestamp
  1366307390,                             ! Version Timestamp
  {55276eb2-3ce1-4c41-8130-cd67dff1fc45}; ! Name of Object 1

