
OS:Version,
  {61a9131a-0f2b-4045-a03f-259c0ccf5c14}, ! Handle
  0.9.3;                                  ! Version Identifier

OS:SizingPeriod:DesignDay,
  {0ccbb7fe-ffec-42bb-87e1-40029eebdca3}, ! Handle
  Phoenix Sky Harbor Intl Ap Ann Clg 1% Condns Enth=>MDB, ! Name
  35.4,                                   ! Maximum Dry-Bulb Temperature {C}
  12,                                     ! Daily Dry-Bulb Temperature Range {deltaC}
  73500,                                  ! Humidity Indicating Conditions at Maximum Dry-Bulb {BasedOnField A3}
  97342,                                  ! Barometric Pressure {Pa}
  4.1,                                    ! Wind Speed {m/s}
  260,                                    ! Wind Direction {deg}
  0,                                      ! Sky Clearness
  0,                                      ! Rain Indicator
  0,                                      ! Snow Indicator
  21,                                     ! Day of Month
  7,                                      ! Month
  SummerDesignDay,                        ! Day Type
  0,                                      ! Daylight Saving Time Indicator
  Enthalpy,                               ! Humidity Indicating Type
  ,                                       ! Humidity Indicating Day Schedule Name
  DefaultMultipliers,                     ! Dry-Bulb Temperature Range Modifier Type
  ,                                       ! Dry-Bulb Temperature Range Modifier Schedule Name
  ASHRAETau,                              ! Solar Model Indicator
  ,                                       ! Beam Solar Day Schedule Name
  ,                                       ! Diffuse Solar Day Schedule Name
  0.588,                                  ! ASHRAE Taub {dimensionless}
  1.653;                                  ! ASHRAE Taud {dimensionless}

OS:ComponentData,
  {0ed8ce8e-b7c8-4e2a-b16b-9b1b2e67644b}, ! Handle
  Component Data 1,                       ! Name
  {aee0d607-1a10-434b-a811-3098eee0bdb6}, ! UUID
  {0d515bfe-ad11-406c-92ee-31da22970d97}, ! Version UUID
  1366306296,                             ! Creation Timestamp
  1366306296,                             ! Version Timestamp
  {0ccbb7fe-ffec-42bb-87e1-40029eebdca3}; ! Name of Object 1

