
OS:Version,
  {befb961b-41c0-456f-ac27-f4d31ea11424}, ! Handle
  0.9.3;                                  ! Version Identifier

OS:SizingPeriod:DesignDay,
  {26df3792-b91f-407b-8eee-19420d4a0ea7}, ! Handle
  Raleigh Durham International Ann Htg Wind 99.6% Condns WS=>MCDB, ! Name
  8.7,                                    ! Maximum Dry-Bulb Temperature {C}
  0,                                      ! Daily Dry-Bulb Temperature Range {deltaC}
  8.7,                                    ! Humidity Indicating Conditions at Maximum Dry-Bulb {BasedOnField A3}
  99809,                                  ! Barometric Pressure {Pa}
  10.7,                                   ! Wind Speed {m/s}
  30,                                     ! Wind Direction {deg}
  0,                                      ! Sky Clearness
  0,                                      ! Rain Indicator
  0,                                      ! Snow Indicator
  21,                                     ! Day of Month
  1,                                      ! Month
  WinterDesignDay,                        ! Day Type
  0,                                      ! Daylight Saving Time Indicator
  Wetbulb,                                ! Humidity Indicating Type
  ,                                       ! Humidity Indicating Day Schedule Name
  DefaultMultipliers,                     ! Dry-Bulb Temperature Range Modifier Type
  ,                                       ! Dry-Bulb Temperature Range Modifier Schedule Name
  ASHRAEClearSky;                         ! Solar Model Indicator

OS:ComponentData,
  {aa0f1d24-4c5f-49ea-bc8c-3b88f958ec2d}, ! Handle
  Component Data 1,                       ! Name
  {cee9d230-6a2a-41a7-a539-00dae2ad077a}, ! UUID
  {37e4ed63-f780-48dc-82b9-cba2a7236aa6}, ! Version UUID
  1366308972,                             ! Creation Timestamp
  1366308972,                             ! Version Timestamp
  {26df3792-b91f-407b-8eee-19420d4a0ea7}; ! Name of Object 1

