
OS:Version,
  {f5cbae1a-060d-4dc6-be9f-a96814e5b5bb}, ! Handle
  0.9.3;                                  ! Version Identifier

OS:SizingPeriod:DesignDay,
  {cc85fd2d-ebb2-47e1-859b-aa51d03b9bf9}, ! Handle
  Truckee Tahoe Ann Clg 2% Condns DB=>MWB, ! Name
  28,                                     ! Maximum Dry-Bulb Temperature {C}
  22.7,                                   ! Daily Dry-Bulb Temperature Range {deltaC}
  13.3,                                   ! Humidity Indicating Conditions at Maximum Dry-Bulb {BasedOnField A3}
  81509,                                  ! Barometric Pressure {Pa}
  4.3,                                    ! Wind Speed {m/s}
  230,                                    ! Wind Direction {deg}
  0,                                      ! Sky Clearness
  0,                                      ! Rain Indicator
  0,                                      ! Snow Indicator
  21,                                     ! Day of Month
  7,                                      ! Month
  SummerDesignDay,                        ! Day Type
  0,                                      ! Daylight Saving Time Indicator
  Wetbulb,                                ! Humidity Indicating Type
  ,                                       ! Humidity Indicating Day Schedule Name
  DefaultMultipliers,                     ! Dry-Bulb Temperature Range Modifier Type
  ,                                       ! Dry-Bulb Temperature Range Modifier Schedule Name
  ASHRAETau,                              ! Solar Model Indicator
  ,                                       ! Beam Solar Day Schedule Name
  ,                                       ! Diffuse Solar Day Schedule Name
  0.344,                                  ! ASHRAE Taub {dimensionless}
  2.382;                                  ! ASHRAE Taud {dimensionless}

OS:ComponentData,
  {b0864d1d-35ae-4f47-8758-3a6fda1a5b65}, ! Handle
  Component Data 1,                       ! Name
  {cf90b316-00e0-4f54-9e06-8c13c79db9b6}, ! UUID
  {082002bc-cc02-4744-ba60-1f67a6a0e296}, ! Version UUID
  1366306625,                             ! Creation Timestamp
  1366306625,                             ! Version Timestamp
  {cc85fd2d-ebb2-47e1-859b-aa51d03b9bf9}; ! Name of Object 1

