
OS:Version,
  {518576ec-f2b4-4a45-b1d1-141975e05fae}, ! Handle
  0.9.3;                                  ! Version Identifier

OS:SizingPeriod:DesignDay,
  {c3f8d8ef-6882-411a-bf09-1622e65de79d}, ! Handle
  PROVIDENCE Ann Clg .4% Condns DP=>MDB,  ! Name
  26.8,                                   ! Maximum Dry-Bulb Temperature {C}
  9.6,                                    ! Daily Dry-Bulb Temperature Range {deltaC}
  23.3,                                   ! Humidity Indicating Conditions at Maximum Dry-Bulb {BasedOnField A3}
  101097,                                 ! Barometric Pressure {Pa}
  5.5,                                    ! Wind Speed {m/s}
  280,                                    ! Wind Direction {deg}
  0,                                      ! Sky Clearness
  0,                                      ! Rain Indicator
  0,                                      ! Snow Indicator
  21,                                     ! Day of Month
  7,                                      ! Month
  SummerDesignDay,                        ! Day Type
  0,                                      ! Daylight Saving Time Indicator
  Dewpoint,                               ! Humidity Indicating Type
  ,                                       ! Humidity Indicating Day Schedule Name
  DefaultMultipliers,                     ! Dry-Bulb Temperature Range Modifier Type
  ,                                       ! Dry-Bulb Temperature Range Modifier Schedule Name
  ASHRAETau,                              ! Solar Model Indicator
  ,                                       ! Beam Solar Day Schedule Name
  ,                                       ! Diffuse Solar Day Schedule Name
  0.507,                                  ! ASHRAE Taub {dimensionless}
  1.885;                                  ! ASHRAE Taud {dimensionless}

OS:ComponentData,
  {94c84abe-da2a-4150-8546-d696d27bd223}, ! Handle
  Component Data 1,                       ! Name
  {3cc2aa85-4d7b-4c02-915a-b4b48e20c5c3}, ! UUID
  {60acdc51-e788-4dd5-9bf6-81124bcc222a}, ! Version UUID
  1366310309,                             ! Creation Timestamp
  1366310309,                             ! Version Timestamp
  {c3f8d8ef-6882-411a-bf09-1622e65de79d}; ! Name of Object 1

