
OS:Version,
  {55e68737-ce1f-4d5f-a18a-cec7df23ff3d}, ! Handle
  0.9.3;                                  ! Version Identifier

OS:SizingPeriod:DesignDay,
  {b75f79e2-69db-4ff8-a8b5-3b15622374a3}, ! Handle
  Poplar Bluff Amos Ann Clg .4% Condns DB=>MWB, ! Name
  34.3,                                   ! Maximum Dry-Bulb Temperature {C}
  10.6,                                   ! Daily Dry-Bulb Temperature Range {deltaC}
  25.1,                                   ! Humidity Indicating Conditions at Maximum Dry-Bulb {BasedOnField A3}
  99583,                                  ! Barometric Pressure {Pa}
  3.1,                                    ! Wind Speed {m/s}
  200,                                    ! Wind Direction {deg}
  0,                                      ! Sky Clearness
  0,                                      ! Rain Indicator
  0,                                      ! Snow Indicator
  21,                                     ! Day of Month
  7,                                      ! Month
  SummerDesignDay,                        ! Day Type
  0,                                      ! Daylight Saving Time Indicator
  Wetbulb,                                ! Humidity Indicating Type
  ,                                       ! Humidity Indicating Day Schedule Name
  DefaultMultipliers,                     ! Dry-Bulb Temperature Range Modifier Type
  ,                                       ! Dry-Bulb Temperature Range Modifier Schedule Name
  ASHRAETau,                              ! Solar Model Indicator
  ,                                       ! Beam Solar Day Schedule Name
  ,                                       ! Diffuse Solar Day Schedule Name
  0.488,                                  ! ASHRAE Taub {dimensionless}
  1.959;                                  ! ASHRAE Taud {dimensionless}

OS:ComponentData,
  {bb2e80a7-2e88-4169-899c-516e35b9b124}, ! Handle
  Component Data 1,                       ! Name
  {59742943-1598-41f0-8eae-dad6fa4c7fbe}, ! UUID
  {61dacc7a-f665-43e3-8a36-d884f524b456}, ! Version UUID
  1366308544,                             ! Creation Timestamp
  1366308544,                             ! Version Timestamp
  {b75f79e2-69db-4ff8-a8b5-3b15622374a3}; ! Name of Object 1

