
OS:Version,
  {94d877f4-58cd-4cc3-97a3-1f29a85b5c2b}, ! Handle
  0.9.3;                                  ! Version Identifier

OS:SizingPeriod:DesignDay,
  {bae4978d-c01e-4d78-b89e-ec8b76e7d3d7}, ! Handle
  March Afb Ann Clg 2% Condns WB=>MDB,    ! Name
  31.7,                                   ! Maximum Dry-Bulb Temperature {C}
  16.6,                                   ! Daily Dry-Bulb Temperature Range {deltaC}
  20.8,                                   ! Humidity Indicating Conditions at Maximum Dry-Bulb {BasedOnField A3}
  95897,                                  ! Barometric Pressure {Pa}
  4.2,                                    ! Wind Speed {m/s}
  300,                                    ! Wind Direction {deg}
  0,                                      ! Sky Clearness
  0,                                      ! Rain Indicator
  0,                                      ! Snow Indicator
  21,                                     ! Day of Month
  8,                                      ! Month
  SummerDesignDay,                        ! Day Type
  0,                                      ! Daylight Saving Time Indicator
  Wetbulb,                                ! Humidity Indicating Type
  ,                                       ! Humidity Indicating Day Schedule Name
  DefaultMultipliers,                     ! Dry-Bulb Temperature Range Modifier Type
  ,                                       ! Dry-Bulb Temperature Range Modifier Schedule Name
  ASHRAETau,                              ! Solar Model Indicator
  ,                                       ! Beam Solar Day Schedule Name
  ,                                       ! Diffuse Solar Day Schedule Name
  0.426,                                  ! ASHRAE Taub {dimensionless}
  2.105;                                  ! ASHRAE Taud {dimensionless}

OS:ComponentData,
  {3878d0d0-4c66-4d62-a384-ebe82eeb1ca7}, ! Handle
  Component Data 1,                       ! Name
  {f6e69d75-f065-408a-9cec-1f4ae990b830}, ! UUID
  {416721ca-4dcb-4311-acf1-351dce023724}, ! Version UUID
  1366306487,                             ! Creation Timestamp
  1366306487,                             ! Version Timestamp
  {bae4978d-c01e-4d78-b89e-ec8b76e7d3d7}; ! Name of Object 1

