
OS:Version,
  {7d0f264f-0d30-4f82-911a-81ccf216b5ca}, ! Handle
  0.9.3;                                  ! Version Identifier

OS:SizingPeriod:DesignDay,
  {7db27836-3ee7-4250-90ad-c0513db35e1a}, ! Handle
  Oklahoma City Will Rogers Wor Ann Htg 99.6% Condns DB, ! Name
  -11.4,                                  ! Maximum Dry-Bulb Temperature {C}
  0,                                      ! Daily Dry-Bulb Temperature Range {deltaC}
  -11.4,                                  ! Humidity Indicating Conditions at Maximum Dry-Bulb {BasedOnField A3}
  96634,                                  ! Barometric Pressure {Pa}
  6.1,                                    ! Wind Speed {m/s}
  0,                                      ! Wind Direction {deg}
  0,                                      ! Sky Clearness
  0,                                      ! Rain Indicator
  0,                                      ! Snow Indicator
  21,                                     ! Day of Month
  1,                                      ! Month
  WinterDesignDay,                        ! Day Type
  0,                                      ! Daylight Saving Time Indicator
  Wetbulb,                                ! Humidity Indicating Type
  ,                                       ! Humidity Indicating Day Schedule Name
  DefaultMultipliers,                     ! Dry-Bulb Temperature Range Modifier Type
  ,                                       ! Dry-Bulb Temperature Range Modifier Schedule Name
  ASHRAEClearSky;                         ! Solar Model Indicator

OS:ComponentData,
  {9f15ba56-ccc9-4783-a8d7-e1fc2cca7dee}, ! Handle
  Component Data 1,                       ! Name
  {f3f178c3-cf60-41ce-b2c5-fc276f274c26}, ! UUID
  {9e8ce38e-5984-4867-8726-ef3493f8569b}, ! Version UUID
  1366309925,                             ! Creation Timestamp
  1366309925,                             ! Version Timestamp
  {7db27836-3ee7-4250-90ad-c0513db35e1a}; ! Name of Object 1

