
OS:Version,
  {7f8fabdc-6e8b-48d7-9fd3-785d5e431f8f}, ! Handle
  0.9.3;                                  ! Version Identifier

OS:SizingPeriod:DesignDay,
  {53de8620-abb7-46f0-a563-86d406c67d89}, ! Handle
  RENO Ann Htg Wind 99% Condns WS=>MCDB,  ! Name
  8.2,                                    ! Maximum Dry-Bulb Temperature {C}
  0,                                      ! Daily Dry-Bulb Temperature Range {deltaC}
  8.2,                                    ! Humidity Indicating Conditions at Maximum Dry-Bulb {BasedOnField A3}
  86219,                                  ! Barometric Pressure {Pa}
  11.9,                                   ! Wind Speed {m/s}
  180,                                    ! Wind Direction {deg}
  0,                                      ! Sky Clearness
  0,                                      ! Rain Indicator
  0,                                      ! Snow Indicator
  21,                                     ! Day of Month
  1,                                      ! Month
  WinterDesignDay,                        ! Day Type
  0,                                      ! Daylight Saving Time Indicator
  Wetbulb,                                ! Humidity Indicating Type
  ,                                       ! Humidity Indicating Day Schedule Name
  DefaultMultipliers,                     ! Dry-Bulb Temperature Range Modifier Type
  ,                                       ! Dry-Bulb Temperature Range Modifier Schedule Name
  ASHRAEClearSky;                         ! Solar Model Indicator

OS:ComponentData,
  {e32daadd-98f6-4681-8aac-4cbaf521b698}, ! Handle
  Component Data 1,                       ! Name
  {5d576fc9-3816-4963-8b88-9dcd2316f685}, ! UUID
  {1a1925bd-bb99-4b0a-8d6b-e86632b80e49}, ! Version UUID
  1366309540,                             ! Creation Timestamp
  1366309540,                             ! Version Timestamp
  {53de8620-abb7-46f0-a563-86d406c67d89}; ! Name of Object 1

