
OS:Version,
  {49cdd72a-9e64-415b-8222-e744c51d98c8}, ! Handle
  0.9.3;                                  ! Version Identifier

OS:SizingPeriod:DesignDay,
  {d3f3be1e-84ec-4175-9956-b0a53e7d1446}, ! Handle
  Orlando Ann Hum_n 99.6% Condns DP=>MCDB, ! Name
  8,                                      ! Maximum Dry-Bulb Temperature {C}
  0,                                      ! Daily Dry-Bulb Temperature Range {deltaC}
  -5.7,                                   ! Humidity Indicating Conditions at Maximum Dry-Bulb {BasedOnField A3}
  100941,                                 ! Barometric Pressure {Pa}
  3.5,                                    ! Wind Speed {m/s}
  310,                                    ! Wind Direction {deg}
  0,                                      ! Sky Clearness
  0,                                      ! Rain Indicator
  0,                                      ! Snow Indicator
  21,                                     ! Day of Month
  12,                                     ! Month
  WinterDesignDay,                        ! Day Type
  0,                                      ! Daylight Saving Time Indicator
  Dewpoint,                               ! Humidity Indicating Type
  ,                                       ! Humidity Indicating Day Schedule Name
  DefaultMultipliers,                     ! Dry-Bulb Temperature Range Modifier Type
  ,                                       ! Dry-Bulb Temperature Range Modifier Schedule Name
  ASHRAEClearSky;                         ! Solar Model Indicator

OS:ComponentData,
  {597cf6a3-d20d-4ba7-bc21-4f428c7e4032}, ! Handle
  Component Data 1,                       ! Name
  {122e3dad-2e4d-4a62-ab8a-18d22e180c9e}, ! UUID
  {411e956e-ab45-4548-95f8-732676ce195b}, ! Version UUID
  1366306888,                             ! Creation Timestamp
  1366306888,                             ! Version Timestamp
  {d3f3be1e-84ec-4175-9956-b0a53e7d1446}; ! Name of Object 1

