
OS:Version,
  {d83dc0c0-fef6-45d0-a0b3-d67093b6c845}, ! Handle
  0.9.3;                                  ! Version Identifier

OS:SizingPeriod:DesignDay,
  {a7482c3a-0697-4db3-9eeb-3d3fac33d245}, ! Handle
  Minot Afb Ann Clg .4% Condns DB=>MWB,   ! Name
  34,                                     ! Maximum Dry-Bulb Temperature {C}
  13.3,                                   ! Daily Dry-Bulb Temperature Range {deltaC}
  20.3,                                   ! Humidity Indicating Conditions at Maximum Dry-Bulb {BasedOnField A3}
  95495,                                  ! Barometric Pressure {Pa}
  5.2,                                    ! Wind Speed {m/s}
  170,                                    ! Wind Direction {deg}
  0,                                      ! Sky Clearness
  0,                                      ! Rain Indicator
  0,                                      ! Snow Indicator
  21,                                     ! Day of Month
  7,                                      ! Month
  SummerDesignDay,                        ! Day Type
  0,                                      ! Daylight Saving Time Indicator
  Wetbulb,                                ! Humidity Indicating Type
  ,                                       ! Humidity Indicating Day Schedule Name
  DefaultMultipliers,                     ! Dry-Bulb Temperature Range Modifier Type
  ,                                       ! Dry-Bulb Temperature Range Modifier Schedule Name
  ASHRAETau,                              ! Solar Model Indicator
  ,                                       ! Beam Solar Day Schedule Name
  ,                                       ! Diffuse Solar Day Schedule Name
  0.388,                                  ! ASHRAE Taub {dimensionless}
  2.243;                                  ! ASHRAE Taud {dimensionless}

OS:ComponentData,
  {502cb9ee-e5ec-42d7-9f7a-2c66635fd164}, ! Handle
  Component Data 1,                       ! Name
  {cde75116-0342-4f27-9f2f-d3b10f00a8e4}, ! UUID
  {695ad4be-cf13-4e6b-a5dc-4b5f1b244adf}, ! Version UUID
  1366309059,                             ! Creation Timestamp
  1366309059,                             ! Version Timestamp
  {a7482c3a-0697-4db3-9eeb-3d3fac33d245}; ! Name of Object 1

