
OS:Version,
  {8e9e1741-f5d1-4c73-8d2d-2c6d7ebd80b7}, ! Handle
  0.9.3;                                  ! Version Identifier

OS:SizingPeriod:DesignDay,
  {ef73cf95-2a65-43bc-a9fa-723df413201c}, ! Handle
  Rock Springs Ann Clg .4% Condns WB=>MDB, ! Name
  25.5,                                   ! Maximum Dry-Bulb Temperature {C}
  15.3,                                   ! Daily Dry-Bulb Temperature Range {deltaC}
  14.9,                                   ! Humidity Indicating Conditions at Maximum Dry-Bulb {BasedOnField A3}
  78905,                                  ! Barometric Pressure {Pa}
  5.3,                                    ! Wind Speed {m/s}
  260,                                    ! Wind Direction {deg}
  0,                                      ! Sky Clearness
  0,                                      ! Rain Indicator
  0,                                      ! Snow Indicator
  21,                                     ! Day of Month
  7,                                      ! Month
  SummerDesignDay,                        ! Day Type
  0,                                      ! Daylight Saving Time Indicator
  Wetbulb,                                ! Humidity Indicating Type
  ,                                       ! Humidity Indicating Day Schedule Name
  DefaultMultipliers,                     ! Dry-Bulb Temperature Range Modifier Type
  ,                                       ! Dry-Bulb Temperature Range Modifier Schedule Name
  ASHRAETau,                              ! Solar Model Indicator
  ,                                       ! Beam Solar Day Schedule Name
  ,                                       ! Diffuse Solar Day Schedule Name
  0.402,                                  ! ASHRAE Taub {dimensionless}
  1.99;                                   ! ASHRAE Taud {dimensionless}

