
OS:Version,
  {13c8dcd5-ad0f-480d-b0e3-cf450616d8ab}, ! Handle
  0.9.3;                                  ! Version Identifier

OS:SizingPeriod:DesignDay,
  {38d227e4-2844-491e-86c4-ecf87cb9a198}, ! Handle
  Sexton Summit Ann Clg .4% Condns WB=>MDB, ! Name
  26.7,                                   ! Maximum Dry-Bulb Temperature {C}
  11.2,                                   ! Daily Dry-Bulb Temperature Range {deltaC}
  17.4,                                   ! Humidity Indicating Conditions at Maximum Dry-Bulb {BasedOnField A3}
  88058,                                  ! Barometric Pressure {Pa}
  2.6,                                    ! Wind Speed {m/s}
  340,                                    ! Wind Direction {deg}
  0,                                      ! Sky Clearness
  0,                                      ! Rain Indicator
  0,                                      ! Snow Indicator
  21,                                     ! Day of Month
  8,                                      ! Month
  SummerDesignDay,                        ! Day Type
  0,                                      ! Daylight Saving Time Indicator
  Wetbulb,                                ! Humidity Indicating Type
  ,                                       ! Humidity Indicating Day Schedule Name
  DefaultMultipliers,                     ! Dry-Bulb Temperature Range Modifier Type
  ,                                       ! Dry-Bulb Temperature Range Modifier Schedule Name
  ASHRAETau,                              ! Solar Model Indicator
  ,                                       ! Beam Solar Day Schedule Name
  ,                                       ! Diffuse Solar Day Schedule Name
  0.311,                                  ! ASHRAE Taub {dimensionless}
  2.729;                                  ! ASHRAE Taud {dimensionless}

OS:ComponentData,
  {fbdf3b18-dcba-43ea-9842-5c2f92d27d53}, ! Handle
  Component Data 1,                       ! Name
  {4e05da84-baba-4e51-b3fe-460f1125cd73}, ! UUID
  {05942988-d2a2-42ff-9477-add74d70ec53}, ! Version UUID
  1366310122,                             ! Creation Timestamp
  1366310122,                             ! Version Timestamp
  {38d227e4-2844-491e-86c4-ecf87cb9a198}; ! Name of Object 1

