
OS:Version,
  {a49c3f1b-aa3d-4d17-8efe-d7a30d4d2f88}, ! Handle
  0.9.3;                                  ! Version Identifier

OS:SizingPeriod:DesignDay,
  {f6ab2c9d-9d6d-4fb3-b972-f6dc4716d625}, ! Handle
  Oakland Co Intl Ann Clg 1% Condns DP=>MDB, ! Name
  26.2,                                   ! Maximum Dry-Bulb Temperature {C}
  10.1,                                   ! Daily Dry-Bulb Temperature Range {deltaC}
  21.8,                                   ! Humidity Indicating Conditions at Maximum Dry-Bulb {BasedOnField A3}
  97703,                                  ! Barometric Pressure {Pa}
  5.2,                                    ! Wind Speed {m/s}
  240,                                    ! Wind Direction {deg}
  0,                                      ! Sky Clearness
  0,                                      ! Rain Indicator
  0,                                      ! Snow Indicator
  21,                                     ! Day of Month
  7,                                      ! Month
  SummerDesignDay,                        ! Day Type
  0,                                      ! Daylight Saving Time Indicator
  Dewpoint,                               ! Humidity Indicating Type
  ,                                       ! Humidity Indicating Day Schedule Name
  DefaultMultipliers,                     ! Dry-Bulb Temperature Range Modifier Type
  ,                                       ! Dry-Bulb Temperature Range Modifier Schedule Name
  ASHRAETau,                              ! Solar Model Indicator
  ,                                       ! Beam Solar Day Schedule Name
  ,                                       ! Diffuse Solar Day Schedule Name
  0.46,                                   ! ASHRAE Taub {dimensionless}
  1.996;                                  ! ASHRAE Taud {dimensionless}

OS:ComponentData,
  {cd6528f8-3b67-48ee-9ea7-e081b7b1c101}, ! Handle
  Component Data 1,                       ! Name
  {48cec33c-8cd3-4909-bb54-01e4cf7599f7}, ! UUID
  {489c0a10-80e7-4d4c-bb02-1009786dcae6}, ! Version UUID
  1366308080,                             ! Creation Timestamp
  1366308080,                             ! Version Timestamp
  {f6ab2c9d-9d6d-4fb3-b972-f6dc4716d625}; ! Name of Object 1

