
OS:Version,
  {7057c977-3fa6-4333-b64b-f63cb0602a47}, ! Handle
  0.9.3;                                  ! Version Identifier

OS:SizingPeriod:DesignDay,
  {d74d48bd-d9ff-453e-a2d0-777c8f28a698}, ! Handle
  MANSFIELD Ann Clg 2% Condns WB=>MDB,    ! Name
  27,                                     ! Maximum Dry-Bulb Temperature {C}
  10.3,                                   ! Daily Dry-Bulb Temperature Range {deltaC}
  22.7,                                   ! Humidity Indicating Conditions at Maximum Dry-Bulb {BasedOnField A3}
  96669,                                  ! Barometric Pressure {Pa}
  4.7,                                    ! Wind Speed {m/s}
  230,                                    ! Wind Direction {deg}
  0,                                      ! Sky Clearness
  0,                                      ! Rain Indicator
  0,                                      ! Snow Indicator
  21,                                     ! Day of Month
  7,                                      ! Month
  SummerDesignDay,                        ! Day Type
  0,                                      ! Daylight Saving Time Indicator
  Wetbulb,                                ! Humidity Indicating Type
  ,                                       ! Humidity Indicating Day Schedule Name
  DefaultMultipliers,                     ! Dry-Bulb Temperature Range Modifier Type
  ,                                       ! Dry-Bulb Temperature Range Modifier Schedule Name
  ASHRAETau,                              ! Solar Model Indicator
  ,                                       ! Beam Solar Day Schedule Name
  ,                                       ! Diffuse Solar Day Schedule Name
  0.456,                                  ! ASHRAE Taub {dimensionless}
  2.029;                                  ! ASHRAE Taud {dimensionless}

OS:ComponentData,
  {98f66b48-8525-415c-8d41-7c8e03aab42e}, ! Handle
  Component Data 1,                       ! Name
  {0c6e6ab4-efdf-4400-b593-77bacc18b31a}, ! UUID
  {98693b60-f44d-4bfa-b94b-4574b44a0aee}, ! Version UUID
  1366309836,                             ! Creation Timestamp
  1366309836,                             ! Version Timestamp
  {d74d48bd-d9ff-453e-a2d0-777c8f28a698}; ! Name of Object 1

