
OS:Version,
  {acb72ffa-e79e-4a65-b8b4-a56cb91eafa4}, ! Handle
  0.9.3;                                  ! Version Identifier

OS:SizingPeriod:DesignDay,
  {2f05d509-ec2a-470b-8f28-edf0f338d538}, ! Handle
  Shreveport Regional Arpt Ann Clg 2% Condns Enth=>MDB, ! Name
  31.9,                                   ! Maximum Dry-Bulb Temperature {C}
  10.7,                                   ! Daily Dry-Bulb Temperature Range {deltaC}
  78900,                                  ! Humidity Indicating Conditions at Maximum Dry-Bulb {BasedOnField A3}
  100403,                                 ! Barometric Pressure {Pa}
  3.3,                                    ! Wind Speed {m/s}
  180,                                    ! Wind Direction {deg}
  0,                                      ! Sky Clearness
  0,                                      ! Rain Indicator
  0,                                      ! Snow Indicator
  21,                                     ! Day of Month
  7,                                      ! Month
  SummerDesignDay,                        ! Day Type
  0,                                      ! Daylight Saving Time Indicator
  Enthalpy,                               ! Humidity Indicating Type
  ,                                       ! Humidity Indicating Day Schedule Name
  DefaultMultipliers,                     ! Dry-Bulb Temperature Range Modifier Type
  ,                                       ! Dry-Bulb Temperature Range Modifier Schedule Name
  ASHRAETau,                              ! Solar Model Indicator
  ,                                       ! Beam Solar Day Schedule Name
  ,                                       ! Diffuse Solar Day Schedule Name
  0.489,                                  ! ASHRAE Taub {dimensionless}
  2.014;                                  ! ASHRAE Taud {dimensionless}

OS:ComponentData,
  {a2c662c6-1b47-41cd-a63f-522a900105f7}, ! Handle
  Component Data 1,                       ! Name
  {27f7ab65-7df7-4f76-9de3-2b0a334cbc34}, ! UUID
  {41173541-1094-4ce2-8273-94966f4d154b}, ! Version UUID
  1366307774,                             ! Creation Timestamp
  1366307774,                             ! Version Timestamp
  {2f05d509-ec2a-470b-8f28-edf0f338d538}; ! Name of Object 1

