
OS:Version,
  {1cd220fc-410c-49bf-b5dd-be6ac3f39c3a}, ! Handle
  0.9.3;                                  ! Version Identifier

OS:SizingPeriod:DesignDay,
  {fb9fd695-050c-4610-84b2-2681826f514d}, ! Handle
  Worland Municipal Ann Clg 2% Condns DP=>MDB, ! Name
  22.2,                                   ! Maximum Dry-Bulb Temperature {C}
  17.8,                                   ! Daily Dry-Bulb Temperature Range {deltaC}
  13.4,                                   ! Humidity Indicating Conditions at Maximum Dry-Bulb {BasedOnField A3}
  86715,                                  ! Barometric Pressure {Pa}
  3.7,                                    ! Wind Speed {m/s}
  180,                                    ! Wind Direction {deg}
  0,                                      ! Sky Clearness
  0,                                      ! Rain Indicator
  0,                                      ! Snow Indicator
  21,                                     ! Day of Month
  7,                                      ! Month
  SummerDesignDay,                        ! Day Type
  0,                                      ! Daylight Saving Time Indicator
  Dewpoint,                               ! Humidity Indicating Type
  ,                                       ! Humidity Indicating Day Schedule Name
  DefaultMultipliers,                     ! Dry-Bulb Temperature Range Modifier Type
  ,                                       ! Dry-Bulb Temperature Range Modifier Schedule Name
  ASHRAETau,                              ! Solar Model Indicator
  ,                                       ! Beam Solar Day Schedule Name
  ,                                       ! Diffuse Solar Day Schedule Name
  0.43,                                   ! ASHRAE Taub {dimensionless}
  1.973;                                  ! ASHRAE Taud {dimensionless}

OS:ComponentData,
  {4791d690-b9f6-4b21-beba-af1db1bf8413}, ! Handle
  Component Data 1,                       ! Name
  {4a7d9afb-1ebd-48fd-8708-9af9cdba3439}, ! UUID
  {99e2b59b-5c6c-4feb-bcd8-27b39a709772}, ! Version UUID
  1366311793,                             ! Creation Timestamp
  1366311793,                             ! Version Timestamp
  {fb9fd695-050c-4610-84b2-2681826f514d}; ! Name of Object 1

