
OS:Version,
  {3c894def-9d5a-4d41-be8a-c536073e1fb3}, ! Handle
  0.9.3;                                  ! Version Identifier

OS:SizingPeriod:DesignDay,
  {dc7940c5-fed4-4dd8-a0a2-92ab8f52a546}, ! Handle
  Mobile Ann Hum_n 99.6% Condns DP=>MCDB, ! Name
  1.5,                                    ! Maximum Dry-Bulb Temperature {C}
  0,                                      ! Daily Dry-Bulb Temperature Range {deltaC}
  -11.5,                                  ! Humidity Indicating Conditions at Maximum Dry-Bulb {BasedOnField A3}
  100523,                                 ! Barometric Pressure {Pa}
  3.7,                                    ! Wind Speed {m/s}
  10,                                     ! Wind Direction {deg}
  0,                                      ! Sky Clearness
  0,                                      ! Rain Indicator
  0,                                      ! Snow Indicator
  21,                                     ! Day of Month
  1,                                      ! Month
  WinterDesignDay,                        ! Day Type
  0,                                      ! Daylight Saving Time Indicator
  Dewpoint,                               ! Humidity Indicating Type
  ,                                       ! Humidity Indicating Day Schedule Name
  DefaultMultipliers,                     ! Dry-Bulb Temperature Range Modifier Type
  ,                                       ! Dry-Bulb Temperature Range Modifier Schedule Name
  ASHRAEClearSky;                         ! Solar Model Indicator

OS:ComponentData,
  {b356d2ba-ffb1-4ef6-abf9-df9af17631a2}, ! Handle
  Component Data 1,                       ! Name
  {a4774916-234f-4fd3-afcb-15e3aa5cd30c}, ! UUID
  {ad160244-7d29-4a16-b07a-f211eba0dd72}, ! Version UUID
  1366305723,                             ! Creation Timestamp
  1366305723,                             ! Version Timestamp
  {dc7940c5-fed4-4dd8-a0a2-92ab8f52a546}; ! Name of Object 1

