
OS:Version,
  {f1f7f89b-bdb8-4a29-b3a4-966df53a9dec}, ! Handle
  0.9.3;                                  ! Version Identifier

OS:SizingPeriod:DesignDay,
  {961138b9-fd54-45f4-84d3-8318eb05fcf3}, ! Handle
  Waterville  Awos Ann Clg 2% Condns Enth=>MDB, ! Name
  25.4,                                   ! Maximum Dry-Bulb Temperature {C}
  10.6,                                   ! Daily Dry-Bulb Temperature Range {deltaC}
  59700,                                  ! Humidity Indicating Conditions at Maximum Dry-Bulb {BasedOnField A3}
  100118,                                 ! Barometric Pressure {Pa}
  3.5,                                    ! Wind Speed {m/s}
  240,                                    ! Wind Direction {deg}
  0,                                      ! Sky Clearness
  0,                                      ! Rain Indicator
  0,                                      ! Snow Indicator
  21,                                     ! Day of Month
  7,                                      ! Month
  SummerDesignDay,                        ! Day Type
  0,                                      ! Daylight Saving Time Indicator
  Enthalpy,                               ! Humidity Indicating Type
  ,                                       ! Humidity Indicating Day Schedule Name
  DefaultMultipliers,                     ! Dry-Bulb Temperature Range Modifier Type
  ,                                       ! Dry-Bulb Temperature Range Modifier Schedule Name
  ASHRAETau,                              ! Solar Model Indicator
  ,                                       ! Beam Solar Day Schedule Name
  ,                                       ! Diffuse Solar Day Schedule Name
  0.457,                                  ! ASHRAE Taub {dimensionless}
  2.007;                                  ! ASHRAE Taud {dimensionless}

OS:ComponentData,
  {d8466597-698d-4171-9b27-dcca3c699f29}, ! Handle
  Component Data 1,                       ! Name
  {e35b8916-7bff-4cee-b478-1582e99a3123}, ! UUID
  {276f073b-5542-4186-90c5-f3fc13dededc}, ! Version UUID
  1366307931,                             ! Creation Timestamp
  1366307931,                             ! Version Timestamp
  {961138b9-fd54-45f4-84d3-8318eb05fcf3}; ! Name of Object 1

