
OS:Version,
  {b9d67746-674d-4b04-bbee-0e5104abc8fe}, ! Handle
  0.9.3;                                  ! Version Identifier

OS:SizingPeriod:DesignDay,
  {36ccc2e2-8dfb-4d97-9b79-b72d4a6d689a}, ! Handle
  Mora Muni  Awos Ann Clg 1% Condns DB=>MWB, ! Name
  29.7,                                   ! Maximum Dry-Bulb Temperature {C}
  12,                                     ! Daily Dry-Bulb Temperature Range {deltaC}
  21.3,                                   ! Humidity Indicating Conditions at Maximum Dry-Bulb {BasedOnField A3}
  97668,                                  ! Barometric Pressure {Pa}
  4.1,                                    ! Wind Speed {m/s}
  190,                                    ! Wind Direction {deg}
  0,                                      ! Sky Clearness
  0,                                      ! Rain Indicator
  0,                                      ! Snow Indicator
  21,                                     ! Day of Month
  7,                                      ! Month
  SummerDesignDay,                        ! Day Type
  0,                                      ! Daylight Saving Time Indicator
  Wetbulb,                                ! Humidity Indicating Type
  ,                                       ! Humidity Indicating Day Schedule Name
  DefaultMultipliers,                     ! Dry-Bulb Temperature Range Modifier Type
  ,                                       ! Dry-Bulb Temperature Range Modifier Schedule Name
  ASHRAETau,                              ! Solar Model Indicator
  ,                                       ! Beam Solar Day Schedule Name
  ,                                       ! Diffuse Solar Day Schedule Name
  0.405,                                  ! ASHRAE Taub {dimensionless}
  2.202;                                  ! ASHRAE Taud {dimensionless}

OS:ComponentData,
  {33263d53-a1c6-4286-8cd7-904db4a862e6}, ! Handle
  Component Data 1,                       ! Name
  {d8879b4f-aadd-4621-81c2-46bb5d9cf240}, ! UUID
  {1d5b32f0-0b5b-420d-8cb7-effc082ab43d}, ! Version UUID
  1366308330,                             ! Creation Timestamp
  1366308330,                             ! Version Timestamp
  {36ccc2e2-8dfb-4d97-9b79-b72d4a6d689a}; ! Name of Object 1

