
OS:Version,
  {b2b989bd-f39e-441f-907b-ed1f5f6b1fac}, ! Handle
  0.9.3;                                  ! Version Identifier

OS:SizingPeriod:DesignDay,
  {310e35a0-3de1-44fb-b72a-00cbdf7f9b4f}, ! Handle
  NORFOLK Ann Clg .4% Condns DP=>MDB,     ! Name
  28.9,                                   ! Maximum Dry-Bulb Temperature {C}
  11.9,                                   ! Daily Dry-Bulb Temperature Range {deltaC}
  23.4,                                   ! Humidity Indicating Conditions at Maximum Dry-Bulb {BasedOnField A3}
  95793,                                  ! Barometric Pressure {Pa}
  6.5,                                    ! Wind Speed {m/s}
  190,                                    ! Wind Direction {deg}
  0,                                      ! Sky Clearness
  0,                                      ! Rain Indicator
  0,                                      ! Snow Indicator
  21,                                     ! Day of Month
  7,                                      ! Month
  SummerDesignDay,                        ! Day Type
  0,                                      ! Daylight Saving Time Indicator
  Dewpoint,                               ! Humidity Indicating Type
  ,                                       ! Humidity Indicating Day Schedule Name
  DefaultMultipliers,                     ! Dry-Bulb Temperature Range Modifier Type
  ,                                       ! Dry-Bulb Temperature Range Modifier Schedule Name
  ASHRAETau,                              ! Solar Model Indicator
  ,                                       ! Beam Solar Day Schedule Name
  ,                                       ! Diffuse Solar Day Schedule Name
  0.402,                                  ! ASHRAE Taub {dimensionless}
  2.247;                                  ! ASHRAE Taud {dimensionless}

OS:ComponentData,
  {e0116512-619d-477e-8f11-7132ce4e82be}, ! Handle
  Component Data 1,                       ! Name
  {fb19dcf0-6cc0-48d7-a7fb-e95fa747f9d7}, ! UUID
  {25ba48bf-b3bb-4949-8944-fe5d13d78cec}, ! Version UUID
  1366309153,                             ! Creation Timestamp
  1366309153,                             ! Version Timestamp
  {310e35a0-3de1-44fb-b72a-00cbdf7f9b4f}; ! Name of Object 1

