
OS:Version,
  {d42cb751-249c-4480-a712-b3be25e8f0bf}, ! Handle
  0.9.3;                                  ! Version Identifier

OS:SizingPeriod:DesignDay,
  {a3d80db7-c468-4d6d-88b6-afa942ce926f}, ! Handle
  Moody Afb Valdosta Ann Clg 2% Condns WB=>MDB, ! Name
  31,                                     ! Maximum Dry-Bulb Temperature {C}
  10,                                     ! Daily Dry-Bulb Temperature Range {deltaC}
  25.6,                                   ! Humidity Indicating Conditions at Maximum Dry-Bulb {BasedOnField A3}
  100475,                                 ! Barometric Pressure {Pa}
  2.6,                                    ! Wind Speed {m/s}
  300,                                    ! Wind Direction {deg}
  0,                                      ! Sky Clearness
  0,                                      ! Rain Indicator
  0,                                      ! Snow Indicator
  21,                                     ! Day of Month
  7,                                      ! Month
  SummerDesignDay,                        ! Day Type
  0,                                      ! Daylight Saving Time Indicator
  Wetbulb,                                ! Humidity Indicating Type
  ,                                       ! Humidity Indicating Day Schedule Name
  DefaultMultipliers,                     ! Dry-Bulb Temperature Range Modifier Type
  ,                                       ! Dry-Bulb Temperature Range Modifier Schedule Name
  ASHRAETau,                              ! Solar Model Indicator
  ,                                       ! Beam Solar Day Schedule Name
  ,                                       ! Diffuse Solar Day Schedule Name
  0.545,                                  ! ASHRAE Taub {dimensionless}
  1.836;                                  ! ASHRAE Taud {dimensionless}

OS:ComponentData,
  {0af6e854-6f6f-4c50-b084-6bb5aec584ac}, ! Handle
  Component Data 1,                       ! Name
  {0f9ce4ba-d0c9-48df-a32c-1ba4a60659d4}, ! UUID
  {5d1c62df-f0e5-411f-a162-021198614033}, ! Version UUID
  1366307060,                             ! Creation Timestamp
  1366307060,                             ! Version Timestamp
  {a3d80db7-c468-4d6d-88b6-afa942ce926f}; ! Name of Object 1

