
OS:Version,
  {a371e026-a3fa-4e9e-88e5-9e0fd30e3e2e}, ! Handle
  0.9.3;                                  ! Version Identifier

OS:SizingPeriod:DesignDay,
  {c6ae65e9-484d-4fa9-a379-bf5035f7fb45}, ! Handle
  Tekamah  Asos Ann Clg 2% Condns Enth=>MDB, ! Name
  29.5,                                   ! Maximum Dry-Bulb Temperature {C}
  11.8,                                   ! Daily Dry-Bulb Temperature Range {deltaC}
  76400,                                  ! Humidity Indicating Conditions at Maximum Dry-Bulb {BasedOnField A3}
  97633,                                  ! Barometric Pressure {Pa}
  6.6,                                    ! Wind Speed {m/s}
  180,                                    ! Wind Direction {deg}
  0,                                      ! Sky Clearness
  0,                                      ! Rain Indicator
  0,                                      ! Snow Indicator
  21,                                     ! Day of Month
  7,                                      ! Month
  SummerDesignDay,                        ! Day Type
  0,                                      ! Daylight Saving Time Indicator
  Enthalpy,                               ! Humidity Indicating Type
  ,                                       ! Humidity Indicating Day Schedule Name
  DefaultMultipliers,                     ! Dry-Bulb Temperature Range Modifier Type
  ,                                       ! Dry-Bulb Temperature Range Modifier Schedule Name
  ASHRAETau,                              ! Solar Model Indicator
  ,                                       ! Beam Solar Day Schedule Name
  ,                                       ! Diffuse Solar Day Schedule Name
  0.417,                                  ! ASHRAE Taub {dimensionless}
  2.204;                                  ! ASHRAE Taud {dimensionless}

