
OS:Version,
  {e3c54dea-30a5-4590-9927-9f22b8c9e6f9}, ! Handle
  0.9.3;                                  ! Version Identifier

OS:SizingPeriod:DesignDay,
  {a85172c5-0597-4182-a20a-bf264a1aab8f}, ! Handle
  Mountain View Moffett Fld Nas Ann Clg .4% Condns DB=>MWB, ! Name
  31.2,                                   ! Maximum Dry-Bulb Temperature {C}
  9.5,                                    ! Daily Dry-Bulb Temperature Range {deltaC}
  18.9,                                   ! Humidity Indicating Conditions at Maximum Dry-Bulb {BasedOnField A3}
  101181,                                 ! Barometric Pressure {Pa}
  3.9,                                    ! Wind Speed {m/s}
  340,                                    ! Wind Direction {deg}
  0,                                      ! Sky Clearness
  0,                                      ! Rain Indicator
  0,                                      ! Snow Indicator
  21,                                     ! Day of Month
  7,                                      ! Month
  SummerDesignDay,                        ! Day Type
  0,                                      ! Daylight Saving Time Indicator
  Wetbulb,                                ! Humidity Indicating Type
  ,                                       ! Humidity Indicating Day Schedule Name
  DefaultMultipliers,                     ! Dry-Bulb Temperature Range Modifier Type
  ,                                       ! Dry-Bulb Temperature Range Modifier Schedule Name
  ASHRAETau,                              ! Solar Model Indicator
  ,                                       ! Beam Solar Day Schedule Name
  ,                                       ! Diffuse Solar Day Schedule Name
  0.378,                                  ! ASHRAE Taub {dimensionless}
  2.37;                                   ! ASHRAE Taud {dimensionless}

OS:ComponentData,
  {0f891cbb-1e87-4ea0-94d9-7465c033544a}, ! Handle
  Component Data 1,                       ! Name
  {ac43fe22-9fb0-4fac-8d2a-a540f051f82f}, ! UUID
  {061e5489-10e9-4c5d-96bd-f5f226208b03}, ! Version UUID
  1366306512,                             ! Creation Timestamp
  1366306512,                             ! Version Timestamp
  {a85172c5-0597-4182-a20a-bf264a1aab8f}; ! Name of Object 1

