
OS:Version,
  {85fd24b0-f451-4a31-967f-f6bfc9837f9f}, ! Handle
  0.9.3;                                  ! Version Identifier

OS:SizingPeriod:DesignDay,
  {92a0be7b-eeaa-4647-9d0f-5b246b8b51dc}, ! Handle
  San Francisco Intl Ap Ann Clg .4% Condns Enth=>MDB, ! Name
  25.8,                                   ! Maximum Dry-Bulb Temperature {C}
  8.5,                                    ! Daily Dry-Bulb Temperature Range {deltaC}
  52400,                                  ! Humidity Indicating Conditions at Maximum Dry-Bulb {BasedOnField A3}
  101301,                                 ! Barometric Pressure {Pa}
  5.9,                                    ! Wind Speed {m/s}
  310,                                    ! Wind Direction {deg}
  0,                                      ! Sky Clearness
  0,                                      ! Rain Indicator
  0,                                      ! Snow Indicator
  21,                                     ! Day of Month
  8,                                      ! Month
  SummerDesignDay,                        ! Day Type
  0,                                      ! Daylight Saving Time Indicator
  Enthalpy,                               ! Humidity Indicating Type
  ,                                       ! Humidity Indicating Day Schedule Name
  DefaultMultipliers,                     ! Dry-Bulb Temperature Range Modifier Type
  ,                                       ! Dry-Bulb Temperature Range Modifier Schedule Name
  ASHRAETau,                              ! Solar Model Indicator
  ,                                       ! Beam Solar Day Schedule Name
  ,                                       ! Diffuse Solar Day Schedule Name
  0.365,                                  ! ASHRAE Taub {dimensionless}
  2.435;                                  ! ASHRAE Taud {dimensionless}

OS:ComponentData,
  {d164ba8e-8e26-4e43-8a91-d9064e454915}, ! Handle
  Component Data 1,                       ! Name
  {a0778c17-7c48-4f47-9b19-bbeb94a6433c}, ! UUID
  {8d25627b-22d3-4b22-be0d-2b91a97a7aa1}, ! Version UUID
  1366306596,                             ! Creation Timestamp
  1366306596,                             ! Version Timestamp
  {92a0be7b-eeaa-4647-9d0f-5b246b8b51dc}; ! Name of Object 1

