
OS:Version,
  {da0cccf1-a4fd-4dfb-b269-a96874d03145}, ! Handle
  0.9.3;                                  ! Version Identifier

OS:SizingPeriod:DesignDay,
  {f8a6cca7-d5cb-45f6-b59c-656875dbe0ad}, ! Handle
  Salem Mcnary Field Ann Htg Wind 99.6% Condns WS=>MCDB, ! Name
  9.9,                                    ! Maximum Dry-Bulb Temperature {C}
  0,                                      ! Daily Dry-Bulb Temperature Range {deltaC}
  9.9,                                    ! Humidity Indicating Conditions at Maximum Dry-Bulb {BasedOnField A3}
  100606,                                 ! Barometric Pressure {Pa}
  12.6,                                   ! Wind Speed {m/s}
  0,                                      ! Wind Direction {deg}
  0,                                      ! Sky Clearness
  0,                                      ! Rain Indicator
  0,                                      ! Snow Indicator
  21,                                     ! Day of Month
  12,                                     ! Month
  WinterDesignDay,                        ! Day Type
  0,                                      ! Daylight Saving Time Indicator
  Wetbulb,                                ! Humidity Indicating Type
  ,                                       ! Humidity Indicating Day Schedule Name
  DefaultMultipliers,                     ! Dry-Bulb Temperature Range Modifier Type
  ,                                       ! Dry-Bulb Temperature Range Modifier Schedule Name
  ASHRAEClearSky;                         ! Solar Model Indicator

OS:ComponentData,
  {9fe77ba2-fd6e-47eb-8d08-cfdbfb73029e}, ! Handle
  Component Data 1,                       ! Name
  {7d16b565-1d80-47fa-8c30-aaba0161c44d}, ! UUID
  {96850d49-ac0a-4aee-a565-eb8262919032}, ! Version UUID
  1366310112,                             ! Creation Timestamp
  1366310112,                             ! Version Timestamp
  {f8a6cca7-d5cb-45f6-b59c-656875dbe0ad}; ! Name of Object 1

