
OS:Version,
  {39bf48e8-47be-441f-be01-08fcf212b890}, ! Handle
  0.9.3;                                  ! Version Identifier

OS:SizingPeriod:DesignDay,
  {c705386e-0184-4051-baaa-6aec4bca74db}, ! Handle
  Omaha/Eppley Airfield Ann Clg 2% Condns WB=>MDB, ! Name
  29.7,                                   ! Maximum Dry-Bulb Temperature {C}
  11,                                     ! Daily Dry-Bulb Temperature Range {deltaC}
  24.3,                                   ! Humidity Indicating Conditions at Maximum Dry-Bulb {BasedOnField A3}
  97784,                                  ! Barometric Pressure {Pa}
  6.1,                                    ! Wind Speed {m/s}
  180,                                    ! Wind Direction {deg}
  0,                                      ! Sky Clearness
  0,                                      ! Rain Indicator
  0,                                      ! Snow Indicator
  21,                                     ! Day of Month
  7,                                      ! Month
  SummerDesignDay,                        ! Day Type
  0,                                      ! Daylight Saving Time Indicator
  Wetbulb,                                ! Humidity Indicating Type
  ,                                       ! Humidity Indicating Day Schedule Name
  DefaultMultipliers,                     ! Dry-Bulb Temperature Range Modifier Type
  ,                                       ! Dry-Bulb Temperature Range Modifier Schedule Name
  ASHRAETau,                              ! Solar Model Indicator
  ,                                       ! Beam Solar Day Schedule Name
  ,                                       ! Diffuse Solar Day Schedule Name
  0.421,                                  ! ASHRAE Taub {dimensionless}
  2.196;                                  ! ASHRAE Taud {dimensionless}

OS:ComponentData,
  {c1356b6c-a071-48e9-b550-2652cf3b58fa}, ! Handle
  Component Data 1,                       ! Name
  {d701ec94-5726-49df-985a-3f1a9335d08f}, ! UUID
  {84e79d2d-3797-4536-82b6-aa45ac8ca696}, ! Version UUID
  1366309170,                             ! Creation Timestamp
  1366309170,                             ! Version Timestamp
  {c705386e-0184-4051-baaa-6aec4bca74db}; ! Name of Object 1

