
OS:Version,
  {4b7b4324-56fb-454d-a5bc-f369db8f1ab6}, ! Handle
  0.9.3;                                  ! Version Identifier

OS:SizingPeriod:DesignDay,
  {993ca736-a461-4d10-a2b8-eba746eb502a}, ! Handle
  Minot/Int'l Airport Ann Clg .4% Condns DP=>MDB, ! Name
  26.6,                                   ! Maximum Dry-Bulb Temperature {C}
  12.2,                                   ! Daily Dry-Bulb Temperature Range {deltaC}
  21.3,                                   ! Humidity Indicating Conditions at Maximum Dry-Bulb {BasedOnField A3}
  95198,                                  ! Barometric Pressure {Pa}
  5.8,                                    ! Wind Speed {m/s}
  160,                                    ! Wind Direction {deg}
  0,                                      ! Sky Clearness
  0,                                      ! Rain Indicator
  0,                                      ! Snow Indicator
  21,                                     ! Day of Month
  7,                                      ! Month
  SummerDesignDay,                        ! Day Type
  0,                                      ! Daylight Saving Time Indicator
  Dewpoint,                               ! Humidity Indicating Type
  ,                                       ! Humidity Indicating Day Schedule Name
  DefaultMultipliers,                     ! Dry-Bulb Temperature Range Modifier Type
  ,                                       ! Dry-Bulb Temperature Range Modifier Schedule Name
  ASHRAETau,                              ! Solar Model Indicator
  ,                                       ! Beam Solar Day Schedule Name
  ,                                       ! Diffuse Solar Day Schedule Name
  0.386,                                  ! ASHRAE Taub {dimensionless}
  2.249;                                  ! ASHRAE Taud {dimensionless}

OS:ComponentData,
  {f7d5eaa6-a6f5-4a50-b580-b8964477839e}, ! Handle
  Component Data 1,                       ! Name
  {a5a3fdc4-cd9e-4ec3-bb7b-43b0eff6c457}, ! UUID
  {f955039e-e6f9-44ca-a549-b4adecd3bf12}, ! Version UUID
  1366309064,                             ! Creation Timestamp
  1366309064,                             ! Version Timestamp
  {993ca736-a461-4d10-a2b8-eba746eb502a}; ! Name of Object 1

