
OS:Version,
  {afcc1cdd-067e-44e7-85cb-a68a16b48593}, ! Handle
  0.9.3;                                  ! Version Identifier

OS:SizingPeriod:DesignDay,
  {d4a43668-a3b7-4a16-b056-8909a8f6bb16}, ! Handle
  Meridian Ann Clg 2% Condns WB=>MDB,     ! Name
  30.9,                                   ! Maximum Dry-Bulb Temperature {C}
  11.4,                                   ! Daily Dry-Bulb Temperature Range {deltaC}
  25.5,                                   ! Humidity Indicating Conditions at Maximum Dry-Bulb {BasedOnField A3}
  100201,                                 ! Barometric Pressure {Pa}
  3.2,                                    ! Wind Speed {m/s}
  0,                                      ! Wind Direction {deg}
  0,                                      ! Sky Clearness
  0,                                      ! Rain Indicator
  0,                                      ! Snow Indicator
  21,                                     ! Day of Month
  7,                                      ! Month
  SummerDesignDay,                        ! Day Type
  0,                                      ! Daylight Saving Time Indicator
  Wetbulb,                                ! Humidity Indicating Type
  ,                                       ! Humidity Indicating Day Schedule Name
  DefaultMultipliers,                     ! Dry-Bulb Temperature Range Modifier Type
  ,                                       ! Dry-Bulb Temperature Range Modifier Schedule Name
  ASHRAETau,                              ! Solar Model Indicator
  ,                                       ! Beam Solar Day Schedule Name
  ,                                       ! Diffuse Solar Day Schedule Name
  0.552,                                  ! ASHRAE Taub {dimensionless}
  1.818;                                  ! ASHRAE Taud {dimensionless}

OS:ComponentData,
  {3a5c19e8-710c-4adb-874f-c35e9e7994e3}, ! Handle
  Component Data 1,                       ! Name
  {bf2aed48-6dad-4b6b-aea9-90153ceef8f4}, ! UUID
  {f2dad30c-8100-4c5f-919e-08220d000310}, ! Version UUID
  1366308662,                             ! Creation Timestamp
  1366308662,                             ! Version Timestamp
  {d4a43668-a3b7-4a16-b056-8909a8f6bb16}; ! Name of Object 1

