
OS:Version,
  {269f5ae2-6347-4076-82b2-011c73028b2d}, ! Handle
  0.9.3;                                  ! Version Identifier

OS:SizingPeriod:DesignDay,
  {e2550438-692b-4507-80ee-eeb9d88a1e60}, ! Handle
  Vero Beach Municipal Arpt Ann Clg 2% Condns WB=>MDB, ! Name
  30.3,                                   ! Maximum Dry-Bulb Temperature {C}
  8.7,                                    ! Daily Dry-Bulb Temperature Range {deltaC}
  26,                                     ! Humidity Indicating Conditions at Maximum Dry-Bulb {BasedOnField A3}
  101241,                                 ! Barometric Pressure {Pa}
  4.8,                                    ! Wind Speed {m/s}
  120,                                    ! Wind Direction {deg}
  0,                                      ! Sky Clearness
  0,                                      ! Rain Indicator
  0,                                      ! Snow Indicator
  21,                                     ! Day of Month
  7,                                      ! Month
  SummerDesignDay,                        ! Day Type
  0,                                      ! Daylight Saving Time Indicator
  Wetbulb,                                ! Humidity Indicating Type
  ,                                       ! Humidity Indicating Day Schedule Name
  DefaultMultipliers,                     ! Dry-Bulb Temperature Range Modifier Type
  ,                                       ! Dry-Bulb Temperature Range Modifier Schedule Name
  ASHRAETau,                              ! Solar Model Indicator
  ,                                       ! Beam Solar Day Schedule Name
  ,                                       ! Diffuse Solar Day Schedule Name
  0.492,                                  ! ASHRAE Taub {dimensionless}
  2.012;                                  ! ASHRAE Taud {dimensionless}

OS:ComponentData,
  {e198803d-2ea2-441c-80f8-673c7d88cd12}, ! Handle
  Component Data 1,                       ! Name
  {1b4407ee-182a-45e8-8120-8c6ea12d587a}, ! UUID
  {7818c3a8-2175-40b2-931b-9e710fbc22ef}, ! Version UUID
  1366306945,                             ! Creation Timestamp
  1366306945,                             ! Version Timestamp
  {e2550438-692b-4507-80ee-eeb9d88a1e60}; ! Name of Object 1

