
OS:Version,
  {143f0fa8-47aa-4c61-8a45-524e5350f06a}, ! Handle
  0.9.3;                                  ! Version Identifier

OS:SizingPeriod:DesignDay,
  {265ea135-f0f9-417c-84f2-f23e37c64224}, ! Handle
  Orlando Intl Arpt Ann Clg .4% Condns Enth=>MDB, ! Name
  31,                                     ! Maximum Dry-Bulb Temperature {C}
  9.4,                                    ! Daily Dry-Bulb Temperature Range {deltaC}
  82100,                                  ! Humidity Indicating Conditions at Maximum Dry-Bulb {BasedOnField A3}
  100977,                                 ! Barometric Pressure {Pa}
  3.7,                                    ! Wind Speed {m/s}
  290,                                    ! Wind Direction {deg}
  0,                                      ! Sky Clearness
  0,                                      ! Rain Indicator
  0,                                      ! Snow Indicator
  21,                                     ! Day of Month
  7,                                      ! Month
  SummerDesignDay,                        ! Day Type
  0,                                      ! Daylight Saving Time Indicator
  Enthalpy,                               ! Humidity Indicating Type
  ,                                       ! Humidity Indicating Day Schedule Name
  DefaultMultipliers,                     ! Dry-Bulb Temperature Range Modifier Type
  ,                                       ! Dry-Bulb Temperature Range Modifier Schedule Name
  ASHRAETau,                              ! Solar Model Indicator
  ,                                       ! Beam Solar Day Schedule Name
  ,                                       ! Diffuse Solar Day Schedule Name
  0.514,                                  ! ASHRAE Taub {dimensionless}
  1.928;                                  ! ASHRAE Taud {dimensionless}

OS:ComponentData,
  {faccfc67-c005-41be-950f-7ac716f890d3}, ! Handle
  Component Data 1,                       ! Name
  {c2d332fa-8ae5-49a0-8cad-1c68991a8918}, ! UUID
  {a29995a8-35cb-4d6a-b95a-325443f21c9f}, ! Version UUID
  1366306896,                             ! Creation Timestamp
  1366306896,                             ! Version Timestamp
  {265ea135-f0f9-417c-84f2-f23e37c64224}; ! Name of Object 1

