
OS:Version,
  {54805e9e-4cb8-4c4c-9324-bfbec738ac5a}, ! Handle
  0.9.3;                                  ! Version Identifier

OS:SizingPeriod:DesignDay,
  {a896c1b1-f77f-4443-ba26-a3d20bab8ffb}, ! Handle
  Pierre Municipal Ap Ann Htg 99% Condns DB, ! Name
  -21.4,                                  ! Maximum Dry-Bulb Temperature {C}
  0,                                      ! Daily Dry-Bulb Temperature Range {deltaC}
  -21.4,                                  ! Humidity Indicating Conditions at Maximum Dry-Bulb {BasedOnField A3}
  95141,                                  ! Barometric Pressure {Pa}
  4.6,                                    ! Wind Speed {m/s}
  310,                                    ! Wind Direction {deg}
  0,                                      ! Sky Clearness
  0,                                      ! Rain Indicator
  0,                                      ! Snow Indicator
  21,                                     ! Day of Month
  1,                                      ! Month
  WinterDesignDay,                        ! Day Type
  0,                                      ! Daylight Saving Time Indicator
  Wetbulb,                                ! Humidity Indicating Type
  ,                                       ! Humidity Indicating Day Schedule Name
  DefaultMultipliers,                     ! Dry-Bulb Temperature Range Modifier Type
  ,                                       ! Dry-Bulb Temperature Range Modifier Schedule Name
  ASHRAEClearSky;                         ! Solar Model Indicator

OS:ComponentData,
  {c8ea53d4-228c-4f73-828f-2f7320cf8b1c}, ! Handle
  Component Data 1,                       ! Name
  {d5208474-c856-46f4-9998-f688cfa5097b}, ! UUID
  {f2258d02-eaf5-4c8c-a207-dba9bc2a3723}, ! Version UUID
  1366310434,                             ! Creation Timestamp
  1366310434,                             ! Version Timestamp
  {a896c1b1-f77f-4443-ba26-a3d20bab8ffb}; ! Name of Object 1

