
OS:Version,
  {96169988-483a-4127-ab01-33ababefd1d2}, ! Handle
  0.9.3;                                  ! Version Identifier

OS:SizingPeriod:DesignDay,
  {252e8840-5026-4b22-bd4b-2e657a906c85}, ! Handle
  Millville Municipal Ap Ann Htg Wind 99.6% Condns WS=>MCDB, ! Name
  2.8,                                    ! Maximum Dry-Bulb Temperature {C}
  0,                                      ! Daily Dry-Bulb Temperature Range {deltaC}
  2.8,                                    ! Humidity Indicating Conditions at Maximum Dry-Bulb {BasedOnField A3}
  101073,                                 ! Barometric Pressure {Pa}
  10.7,                                   ! Wind Speed {m/s}
  290,                                    ! Wind Direction {deg}
  0,                                      ! Sky Clearness
  0,                                      ! Rain Indicator
  0,                                      ! Snow Indicator
  21,                                     ! Day of Month
  1,                                      ! Month
  WinterDesignDay,                        ! Day Type
  0,                                      ! Daylight Saving Time Indicator
  Wetbulb,                                ! Humidity Indicating Type
  ,                                       ! Humidity Indicating Day Schedule Name
  DefaultMultipliers,                     ! Dry-Bulb Temperature Range Modifier Type
  ,                                       ! Dry-Bulb Temperature Range Modifier Schedule Name
  ASHRAEClearSky;                         ! Solar Model Indicator

OS:ComponentData,
  {42e812c0-5b72-4b78-8af2-97bc76798f1f}, ! Handle
  Component Data 1,                       ! Name
  {2868e39b-36db-4afd-83ea-6a11d7f8edcc}, ! UUID
  {c2973a05-6c2e-4079-b15f-c5726d863292}, ! Version UUID
  1366309317,                             ! Creation Timestamp
  1366309317,                             ! Version Timestamp
  {252e8840-5026-4b22-bd4b-2e657a906c85}; ! Name of Object 1

