
OS:Version,
  {8aff26d9-ba39-4893-96dc-66f81d8fceea}, ! Handle
  0.9.3;                                  ! Version Identifier

OS:SizingPeriod:DesignDay,
  {fb507ad0-ebe1-4c4c-b732-fa745006e6b4}, ! Handle
  SYRACUSE Ann Clg 1% Condns WB=>MDB,     ! Name
  27.9,                                   ! Maximum Dry-Bulb Temperature {C}
  10.8,                                   ! Daily Dry-Bulb Temperature Range {deltaC}
  23.1,                                   ! Humidity Indicating Conditions at Maximum Dry-Bulb {BasedOnField A3}
  99844,                                  ! Barometric Pressure {Pa}
  4.4,                                    ! Wind Speed {m/s}
  260,                                    ! Wind Direction {deg}
  0,                                      ! Sky Clearness
  0,                                      ! Rain Indicator
  0,                                      ! Snow Indicator
  21,                                     ! Day of Month
  7,                                      ! Month
  SummerDesignDay,                        ! Day Type
  0,                                      ! Daylight Saving Time Indicator
  Wetbulb,                                ! Humidity Indicating Type
  ,                                       ! Humidity Indicating Day Schedule Name
  DefaultMultipliers,                     ! Dry-Bulb Temperature Range Modifier Type
  ,                                       ! Dry-Bulb Temperature Range Modifier Schedule Name
  ASHRAETau,                              ! Solar Model Indicator
  ,                                       ! Beam Solar Day Schedule Name
  ,                                       ! Diffuse Solar Day Schedule Name
  0.47,                                   ! ASHRAE Taub {dimensionless}
  1.975;                                  ! ASHRAE Taud {dimensionless}

OS:ComponentData,
  {d8066bd4-d9a6-4f8c-9f54-43bf45e12098}, ! Handle
  Component Data 1,                       ! Name
  {debe97bb-7332-478b-bc8e-84571413382e}, ! UUID
  {4799747a-165c-428e-b3f8-8b19a9573d45}, ! Version UUID
  1366309740,                             ! Creation Timestamp
  1366309740,                             ! Version Timestamp
  {fb507ad0-ebe1-4c4c-b732-fa745006e6b4}; ! Name of Object 1

