
OS:Version,
  {813e50f5-c2a3-4ca4-8093-adef5fa6e9b3}, ! Handle
  0.9.3;                                  ! Version Identifier

OS:SizingPeriod:DesignDay,
  {84cf63d7-8e37-4092-8794-f358457569d0}, ! Handle
  MIDLAND Ann Clg 2% Condns Enth=>MDB,    ! Name
  29.9,                                   ! Maximum Dry-Bulb Temperature {C}
  13.1,                                   ! Daily Dry-Bulb Temperature Range {deltaC}
  68000,                                  ! Humidity Indicating Conditions at Maximum Dry-Bulb {BasedOnField A3}
  91290,                                  ! Barometric Pressure {Pa}
  5.7,                                    ! Wind Speed {m/s}
  150,                                    ! Wind Direction {deg}
  0,                                      ! Sky Clearness
  0,                                      ! Rain Indicator
  0,                                      ! Snow Indicator
  21,                                     ! Day of Month
  7,                                      ! Month
  SummerDesignDay,                        ! Day Type
  0,                                      ! Daylight Saving Time Indicator
  Enthalpy,                               ! Humidity Indicating Type
  ,                                       ! Humidity Indicating Day Schedule Name
  DefaultMultipliers,                     ! Dry-Bulb Temperature Range Modifier Type
  ,                                       ! Dry-Bulb Temperature Range Modifier Schedule Name
  ASHRAETau,                              ! Solar Model Indicator
  ,                                       ! Beam Solar Day Schedule Name
  ,                                       ! Diffuse Solar Day Schedule Name
  0.443,                                  ! ASHRAE Taub {dimensionless}
  2.032;                                  ! ASHRAE Taud {dimensionless}

OS:ComponentData,
  {74a35e35-d728-4552-a658-6290e998d4d7}, ! Handle
  Component Data 1,                       ! Name
  {cd6b4f98-3f8c-40d5-b796-2945a8ccd4d3}, ! UUID
  {9b4a29f3-df81-4110-9743-afff5c87a4a4}, ! Version UUID
  1366310828,                             ! Creation Timestamp
  1366310828,                             ! Version Timestamp
  {84cf63d7-8e37-4092-8794-f358457569d0}; ! Name of Object 1

