
OS:Version,
  {0dd8cac8-4983-433f-b04b-d36079f4e6b1}, ! Handle
  0.9.3;                                  ! Version Identifier

OS:SizingPeriod:DesignDay,
  {37c41dd6-afcd-4139-a240-affd9e84c5bc}, ! Handle
  Sexton Summit Ann Clg 1% Condns Enth=>MDB, ! Name
  25.3,                                   ! Maximum Dry-Bulb Temperature {C}
  11.2,                                   ! Daily Dry-Bulb Temperature Range {deltaC}
  50100,                                  ! Humidity Indicating Conditions at Maximum Dry-Bulb {BasedOnField A3}
  88058,                                  ! Barometric Pressure {Pa}
  2.6,                                    ! Wind Speed {m/s}
  340,                                    ! Wind Direction {deg}
  0,                                      ! Sky Clearness
  0,                                      ! Rain Indicator
  0,                                      ! Snow Indicator
  21,                                     ! Day of Month
  8,                                      ! Month
  SummerDesignDay,                        ! Day Type
  0,                                      ! Daylight Saving Time Indicator
  Enthalpy,                               ! Humidity Indicating Type
  ,                                       ! Humidity Indicating Day Schedule Name
  DefaultMultipliers,                     ! Dry-Bulb Temperature Range Modifier Type
  ,                                       ! Dry-Bulb Temperature Range Modifier Schedule Name
  ASHRAETau,                              ! Solar Model Indicator
  ,                                       ! Beam Solar Day Schedule Name
  ,                                       ! Diffuse Solar Day Schedule Name
  0.311,                                  ! ASHRAE Taub {dimensionless}
  2.729;                                  ! ASHRAE Taud {dimensionless}

