
OS:Version,
  {6a70bb73-23d1-4ebf-a315-b1d3ac4d740a}, ! Handle
  0.9.3;                                  ! Version Identifier

OS:SizingPeriod:DesignDay,
  {6a6e56bc-bfd1-41c0-9039-07e9ae4e1dea}, ! Handle
  Sexton Summit Ann Clg 1% Condns Enth=>MDB, ! Name
  25.3,                                   ! Maximum Dry-Bulb Temperature {C}
  11.2,                                   ! Daily Dry-Bulb Temperature Range {deltaC}
  50100,                                  ! Humidity Indicating Conditions at Maximum Dry-Bulb {BasedOnField A3}
  88058,                                  ! Barometric Pressure {Pa}
  2.6,                                    ! Wind Speed {m/s}
  340,                                    ! Wind Direction {deg}
  0,                                      ! Sky Clearness
  0,                                      ! Rain Indicator
  0,                                      ! Snow Indicator
  21,                                     ! Day of Month
  8,                                      ! Month
  SummerDesignDay,                        ! Day Type
  0,                                      ! Daylight Saving Time Indicator
  Enthalpy,                               ! Humidity Indicating Type
  ,                                       ! Humidity Indicating Day Schedule Name
  DefaultMultipliers,                     ! Dry-Bulb Temperature Range Modifier Type
  ,                                       ! Dry-Bulb Temperature Range Modifier Schedule Name
  ASHRAETau,                              ! Solar Model Indicator
  ,                                       ! Beam Solar Day Schedule Name
  ,                                       ! Diffuse Solar Day Schedule Name
  0.311,                                  ! ASHRAE Taub {dimensionless}
  2.729;                                  ! ASHRAE Taud {dimensionless}

OS:ComponentData,
  {b78a4c99-da74-4f77-8ec9-d8171a4d148f}, ! Handle
  Component Data 1,                       ! Name
  {a85d07b1-e65c-4f09-98f3-7b963b246fcc}, ! UUID
  {0b774470-1215-422a-9306-2839c5185990}, ! Version UUID
  1366310123,                             ! Creation Timestamp
  1366310123,                             ! Version Timestamp
  {6a6e56bc-bfd1-41c0-9039-07e9ae4e1dea}; ! Name of Object 1

