
OS:Version,
  {0e087c64-01b8-4b17-9d0e-ce12869eca58}, ! Handle
  0.9.3;                                  ! Version Identifier

OS:SizingPeriod:DesignDay,
  {a0a1ffa8-5303-417b-ac20-315a89f71d23}, ! Handle
  SEATTLE Ann Htg Wind 99% Condns WS=>MCDB, ! Name
  7,                                      ! Maximum Dry-Bulb Temperature {C}
  0,                                      ! Daily Dry-Bulb Temperature Range {deltaC}
  7,                                      ! Humidity Indicating Conditions at Maximum Dry-Bulb {BasedOnField A3}
  99868,                                  ! Barometric Pressure {Pa}
  10.8,                                   ! Wind Speed {m/s}
  20,                                     ! Wind Direction {deg}
  0,                                      ! Sky Clearness
  0,                                      ! Rain Indicator
  0,                                      ! Snow Indicator
  21,                                     ! Day of Month
  12,                                     ! Month
  WinterDesignDay,                        ! Day Type
  0,                                      ! Daylight Saving Time Indicator
  Wetbulb,                                ! Humidity Indicating Type
  ,                                       ! Humidity Indicating Day Schedule Name
  DefaultMultipliers,                     ! Dry-Bulb Temperature Range Modifier Type
  ,                                       ! Dry-Bulb Temperature Range Modifier Schedule Name
  ASHRAEClearSky;                         ! Solar Model Indicator

OS:ComponentData,
  {13726105-f7ea-4152-95a3-e86c62fc051e}, ! Handle
  Component Data 1,                       ! Name
  {e8497243-77e8-404c-a063-8f300ceed809}, ! UUID
  {3549ef4d-301d-4f2f-866a-889c78dbe5ec}, ! Version UUID
  1366311353,                             ! Creation Timestamp
  1366311353,                             ! Version Timestamp
  {a0a1ffa8-5303-417b-ac20-315a89f71d23}; ! Name of Object 1

