
OS:Version,
  {6abdb04a-0c59-419d-9b58-c73e53c78525}, ! Handle
  0.9.3;                                  ! Version Identifier

OS:SizingPeriod:DesignDay,
  {c936e78e-85b9-4c66-bf53-70b36324ef8b}, ! Handle
  Oceana Nas Ann Clg 1% Condns WB=>MDB,   ! Name
  30.5,                                   ! Maximum Dry-Bulb Temperature {C}
  8.4,                                    ! Daily Dry-Bulb Temperature Range {deltaC}
  25.6,                                   ! Humidity Indicating Conditions at Maximum Dry-Bulb {BasedOnField A3}
  101229,                                 ! Barometric Pressure {Pa}
  4.4,                                    ! Wind Speed {m/s}
  220,                                    ! Wind Direction {deg}
  0,                                      ! Sky Clearness
  0,                                      ! Rain Indicator
  0,                                      ! Snow Indicator
  21,                                     ! Day of Month
  7,                                      ! Month
  SummerDesignDay,                        ! Day Type
  0,                                      ! Daylight Saving Time Indicator
  Wetbulb,                                ! Humidity Indicating Type
  ,                                       ! Humidity Indicating Day Schedule Name
  DefaultMultipliers,                     ! Dry-Bulb Temperature Range Modifier Type
  ,                                       ! Dry-Bulb Temperature Range Modifier Schedule Name
  ASHRAETau,                              ! Solar Model Indicator
  ,                                       ! Beam Solar Day Schedule Name
  ,                                       ! Diffuse Solar Day Schedule Name
  0.585,                                  ! ASHRAE Taub {dimensionless}
  1.719;                                  ! ASHRAE Taud {dimensionless}

