
OS:Version,
  {51505659-5753-4f99-8dd7-859fdaafc1b6}, ! Handle
  0.9.3;                                  ! Version Identifier

OS:SizingPeriod:DesignDay,
  {eac7b692-0670-4175-bed8-a1f9ad8d0f07}, ! Handle
  Macdill Afb Ann Htg Wind 99.6% Condns WS=>MCDB, ! Name
  16.5,                                   ! Maximum Dry-Bulb Temperature {C}
  0,                                      ! Daily Dry-Bulb Temperature Range {deltaC}
  16.5,                                   ! Humidity Indicating Conditions at Maximum Dry-Bulb {BasedOnField A3}
  101229,                                 ! Barometric Pressure {Pa}
  9.1,                                    ! Wind Speed {m/s}
  10,                                     ! Wind Direction {deg}
  0,                                      ! Sky Clearness
  0,                                      ! Rain Indicator
  0,                                      ! Snow Indicator
  21,                                     ! Day of Month
  1,                                      ! Month
  WinterDesignDay,                        ! Day Type
  0,                                      ! Daylight Saving Time Indicator
  Wetbulb,                                ! Humidity Indicating Type
  ,                                       ! Humidity Indicating Day Schedule Name
  DefaultMultipliers,                     ! Dry-Bulb Temperature Range Modifier Type
  ,                                       ! Dry-Bulb Temperature Range Modifier Schedule Name
  ASHRAEClearSky;                         ! Solar Model Indicator

OS:ComponentData,
  {4068d177-0ed4-4e6e-a612-87a68fb5bb10}, ! Handle
  Component Data 1,                       ! Name
  {d66cfd0f-f05b-4cce-a632-17e7c43eba06}, ! UUID
  {885c2e80-b674-4408-a044-b0ccaf2528fb}, ! Version UUID
  1366306843,                             ! Creation Timestamp
  1366306843,                             ! Version Timestamp
  {eac7b692-0670-4175-bed8-a1f9ad8d0f07}; ! Name of Object 1

