
OS:Version,
  {ff65f174-a5d2-42cc-a5da-7ef367cdc45f}, ! Handle
  0.9.3;                                  ! Version Identifier

OS:SizingPeriod:DesignDay,
  {cb99da53-7aeb-43aa-a58e-62f650b96718}, ! Handle
  Sumter Shaw Afb Ann Hum_n 99% Condns DP=>MCDB, ! Name
  2.4,                                    ! Maximum Dry-Bulb Temperature {C}
  0,                                      ! Daily Dry-Bulb Temperature Range {deltaC}
  -12.1,                                  ! Humidity Indicating Conditions at Maximum Dry-Bulb {BasedOnField A3}
  100439,                                 ! Barometric Pressure {Pa}
  2.4,                                    ! Wind Speed {m/s}
  30,                                     ! Wind Direction {deg}
  0,                                      ! Sky Clearness
  0,                                      ! Rain Indicator
  0,                                      ! Snow Indicator
  21,                                     ! Day of Month
  1,                                      ! Month
  WinterDesignDay,                        ! Day Type
  0,                                      ! Daylight Saving Time Indicator
  Dewpoint,                               ! Humidity Indicating Type
  ,                                       ! Humidity Indicating Day Schedule Name
  DefaultMultipliers,                     ! Dry-Bulb Temperature Range Modifier Type
  ,                                       ! Dry-Bulb Temperature Range Modifier Schedule Name
  ASHRAEClearSky;                         ! Solar Model Indicator

OS:ComponentData,
  {7522e004-38ce-45fa-b387-9f6ca1092486}, ! Handle
  Component Data 1,                       ! Name
  {8d8d0f0c-d4e7-401b-a335-e54a6743c72a}, ! UUID
  {a7179d2a-15da-4f87-a57e-78e7a0dccea5}, ! Version UUID
  1366310379,                             ! Creation Timestamp
  1366310379,                             ! Version Timestamp
  {cb99da53-7aeb-43aa-a58e-62f650b96718}; ! Name of Object 1

