
OS:Version,
  {d84d0801-81b0-4063-a192-48dfccccfe40}, ! Handle
  0.9.3;                                  ! Version Identifier

OS:SizingPeriod:DesignDay,
  {79c8cfd6-5983-49ba-9b34-753a11d6f9f4}, ! Handle
  Winchester Rgnl Ann Clg .4% Condns WB=>MDB, ! Name
  31.6,                                   ! Maximum Dry-Bulb Temperature {C}
  11.2,                                   ! Daily Dry-Bulb Temperature Range {deltaC}
  25.4,                                   ! Humidity Indicating Conditions at Maximum Dry-Bulb {BasedOnField A3}
  98686,                                  ! Barometric Pressure {Pa}
  3.4,                                    ! Wind Speed {m/s}
  280,                                    ! Wind Direction {deg}
  0,                                      ! Sky Clearness
  0,                                      ! Rain Indicator
  0,                                      ! Snow Indicator
  21,                                     ! Day of Month
  7,                                      ! Month
  SummerDesignDay,                        ! Day Type
  0,                                      ! Daylight Saving Time Indicator
  Wetbulb,                                ! Humidity Indicating Type
  ,                                       ! Humidity Indicating Day Schedule Name
  DefaultMultipliers,                     ! Dry-Bulb Temperature Range Modifier Type
  ,                                       ! Dry-Bulb Temperature Range Modifier Schedule Name
  ASHRAETau,                              ! Solar Model Indicator
  ,                                       ! Beam Solar Day Schedule Name
  ,                                       ! Diffuse Solar Day Schedule Name
  0.532,                                  ! ASHRAE Taub {dimensionless}
  1.802;                                  ! ASHRAE Taud {dimensionless}

OS:ComponentData,
  {f1d6efcd-871d-48f9-a264-fef8ae51241c}, ! Handle
  Component Data 1,                       ! Name
  {098f4440-dc38-44c8-81c3-b8016f7dc0f2}, ! UUID
  {e154fe0f-be0c-4061-aaad-cd9cb7580e6e}, ! Version UUID
  1366311224,                             ! Creation Timestamp
  1366311224,                             ! Version Timestamp
  {79c8cfd6-5983-49ba-9b34-753a11d6f9f4}; ! Name of Object 1

