
OS:Version,
  {75a850d2-f96f-448b-bd69-032820a305d6}, ! Handle
  0.9.3;                                  ! Version Identifier

OS:SizingPeriod:DesignDay,
  {8cbd7701-5bb4-4da0-9b3a-b76d2ce6482b}, ! Handle
  Rhinelander Oneida Ann Clg .4% Condns Enth=>MDB, ! Name
  27.5,                                   ! Maximum Dry-Bulb Temperature {C}
  12.8,                                   ! Daily Dry-Bulb Temperature Range {deltaC}
  69900,                                  ! Humidity Indicating Conditions at Maximum Dry-Bulb {BasedOnField A3}
  95381,                                  ! Barometric Pressure {Pa}
  4.4,                                    ! Wind Speed {m/s}
  210,                                    ! Wind Direction {deg}
  0,                                      ! Sky Clearness
  0,                                      ! Rain Indicator
  0,                                      ! Snow Indicator
  21,                                     ! Day of Month
  7,                                      ! Month
  SummerDesignDay,                        ! Day Type
  0,                                      ! Daylight Saving Time Indicator
  Enthalpy,                               ! Humidity Indicating Type
  ,                                       ! Humidity Indicating Day Schedule Name
  DefaultMultipliers,                     ! Dry-Bulb Temperature Range Modifier Type
  ,                                       ! Dry-Bulb Temperature Range Modifier Schedule Name
  ASHRAETau,                              ! Solar Model Indicator
  ,                                       ! Beam Solar Day Schedule Name
  ,                                       ! Diffuse Solar Day Schedule Name
  0.405,                                  ! ASHRAE Taub {dimensionless}
  2.18;                                   ! ASHRAE Taud {dimensionless}

OS:ComponentData,
  {043150ea-efd5-4052-96ab-7732473ada42}, ! Handle
  Component Data 1,                       ! Name
  {fd09c2fb-1b66-4565-b107-8df4c5bbf278}, ! UUID
  {055320b2-cd16-4a56-a857-b4480c125b25}, ! Version UUID
  1366308093,                             ! Creation Timestamp
  1366308093,                             ! Version Timestamp
  {8cbd7701-5bb4-4da0-9b3a-b76d2ce6482b}; ! Name of Object 1

