
OS:Version,
  {6f7002e5-888f-4b64-ba8f-195a48c161eb}, ! Handle
  0.9.3;                                  ! Version Identifier

OS:SizingPeriod:DesignDay,
  {f76c7f6a-e2d1-43f6-9656-a05178b150f2}, ! Handle
  Mosinee Central Wi Ann Clg 1% Condns DB=>MWB, ! Name
  28.8,                                   ! Maximum Dry-Bulb Temperature {C}
  11.6,                                   ! Daily Dry-Bulb Temperature Range {deltaC}
  21.5,                                   ! Humidity Indicating Conditions at Maximum Dry-Bulb {BasedOnField A3}
  96738,                                  ! Barometric Pressure {Pa}
  4.6,                                    ! Wind Speed {m/s}
  220,                                    ! Wind Direction {deg}
  0,                                      ! Sky Clearness
  0,                                      ! Rain Indicator
  0,                                      ! Snow Indicator
  21,                                     ! Day of Month
  7,                                      ! Month
  SummerDesignDay,                        ! Day Type
  0,                                      ! Daylight Saving Time Indicator
  Wetbulb,                                ! Humidity Indicating Type
  ,                                       ! Humidity Indicating Day Schedule Name
  DefaultMultipliers,                     ! Dry-Bulb Temperature Range Modifier Type
  ,                                       ! Dry-Bulb Temperature Range Modifier Schedule Name
  ASHRAETau,                              ! Solar Model Indicator
  ,                                       ! Beam Solar Day Schedule Name
  ,                                       ! Diffuse Solar Day Schedule Name
  0.415,                                  ! ASHRAE Taub {dimensionless}
  2.153;                                  ! ASHRAE Taud {dimensionless}

OS:ComponentData,
  {5ff7c761-136c-41f9-a26f-1b0fdc708c32}, ! Handle
  Component Data 1,                       ! Name
  {d40c5a88-978f-4800-8937-85fff9a8ec77}, ! UUID
  {da21b3ad-1f2e-4ce2-ac92-52f7b9e32109}, ! Version UUID
  1366311569,                             ! Creation Timestamp
  1366311569,                             ! Version Timestamp
  {f76c7f6a-e2d1-43f6-9656-a05178b150f2}; ! Name of Object 1

