
OS:Version,
  {a5441642-ce4c-472f-a370-08cfcf2c1bb5}, ! Handle
  0.9.3;                                  ! Version Identifier

OS:SizingPeriod:DesignDay,
  {14094ff8-b9b0-4710-b781-c80d6d21cc81}, ! Handle
  Palmer Municipal Ann Htg 99% Condns DB, ! Name
  -22.8,                                  ! Maximum Dry-Bulb Temperature {C}
  0,                                      ! Daily Dry-Bulb Temperature Range {deltaC}
  -22.8,                                  ! Humidity Indicating Conditions at Maximum Dry-Bulb {BasedOnField A3}
  100475,                                 ! Barometric Pressure {Pa}
  0.6,                                    ! Wind Speed {m/s}
  0,                                      ! Wind Direction {deg}
  0,                                      ! Sky Clearness
  0,                                      ! Rain Indicator
  0,                                      ! Snow Indicator
  21,                                     ! Day of Month
  1,                                      ! Month
  WinterDesignDay,                        ! Day Type
  0,                                      ! Daylight Saving Time Indicator
  Wetbulb,                                ! Humidity Indicating Type
  ,                                       ! Humidity Indicating Day Schedule Name
  DefaultMultipliers,                     ! Dry-Bulb Temperature Range Modifier Type
  ,                                       ! Dry-Bulb Temperature Range Modifier Schedule Name
  ASHRAEClearSky;                         ! Solar Model Indicator

OS:ComponentData,
  {71e012c4-33ca-43bc-b6da-25b958562176}, ! Handle
  Component Data 1,                       ! Name
  {d312d7ac-0321-40fd-87e4-4ef3d83626ee}, ! UUID
  {d7f1100b-c1d3-4e3d-9e18-c75ffd3457a8}, ! Version UUID
  1366305474,                             ! Creation Timestamp
  1366305474,                             ! Version Timestamp
  {14094ff8-b9b0-4710-b781-c80d6d21cc81}; ! Name of Object 1

