
OS:Version,
  {e629c676-a827-4c83-b215-05710a213b5c}, ! Handle
  0.9.3;                                  ! Version Identifier

OS:SizingPeriod:DesignDay,
  {5cb8d28e-ab21-4019-bf07-31b6c871b497}, ! Handle
  Pueblo Memorial Ap Ann Clg 1% Condns DP=>MDB, ! Name
  20.9,                                   ! Maximum Dry-Bulb Temperature {C}
  18,                                     ! Daily Dry-Bulb Temperature Range {deltaC}
  16.4,                                   ! Humidity Indicating Conditions at Maximum Dry-Bulb {BasedOnField A3}
  85306,                                  ! Barometric Pressure {Pa}
  5.1,                                    ! Wind Speed {m/s}
  120,                                    ! Wind Direction {deg}
  0,                                      ! Sky Clearness
  0,                                      ! Rain Indicator
  0,                                      ! Snow Indicator
  21,                                     ! Day of Month
  7,                                      ! Month
  SummerDesignDay,                        ! Day Type
  0,                                      ! Daylight Saving Time Indicator
  Dewpoint,                               ! Humidity Indicating Type
  ,                                       ! Humidity Indicating Day Schedule Name
  DefaultMultipliers,                     ! Dry-Bulb Temperature Range Modifier Type
  ,                                       ! Dry-Bulb Temperature Range Modifier Schedule Name
  ASHRAETau,                              ! Solar Model Indicator
  ,                                       ! Beam Solar Day Schedule Name
  ,                                       ! Diffuse Solar Day Schedule Name
  0.435,                                  ! ASHRAE Taub {dimensionless}
  1.969;                                  ! ASHRAE Taud {dimensionless}

OS:ComponentData,
  {2e3c725f-94d9-440b-9ce8-6ae867d3a48b}, ! Handle
  Component Data 1,                       ! Name
  {1761258b-42b7-4cd8-a769-0fcb7ea56e2f}, ! UUID
  {ead59ed3-7fd6-498a-9263-dafdcc99b974}, ! Version UUID
  1366306732,                             ! Creation Timestamp
  1366306732,                             ! Version Timestamp
  {5cb8d28e-ab21-4019-bf07-31b6c871b497}; ! Name of Object 1

