
OS:Version,
  {eb5f3cfa-3ed6-4a81-a206-33b9540b6435}, ! Handle
  0.9.3;                                  ! Version Identifier

OS:SizingPeriod:DesignDay,
  {8826ac08-8199-42e4-9956-64fb061d907d}, ! Handle
  Marshfield Muni Ann Clg 1% Condns WB=>MDB, ! Name
  27.7,                                   ! Maximum Dry-Bulb Temperature {C}
  11.2,                                   ! Daily Dry-Bulb Temperature Range {deltaC}
  23,                                     ! Humidity Indicating Conditions at Maximum Dry-Bulb {BasedOnField A3}
  96738,                                  ! Barometric Pressure {Pa}
  4.2,                                    ! Wind Speed {m/s}
  190,                                    ! Wind Direction {deg}
  0,                                      ! Sky Clearness
  0,                                      ! Rain Indicator
  0,                                      ! Snow Indicator
  21,                                     ! Day of Month
  7,                                      ! Month
  SummerDesignDay,                        ! Day Type
  0,                                      ! Daylight Saving Time Indicator
  Wetbulb,                                ! Humidity Indicating Type
  ,                                       ! Humidity Indicating Day Schedule Name
  DefaultMultipliers,                     ! Dry-Bulb Temperature Range Modifier Type
  ,                                       ! Dry-Bulb Temperature Range Modifier Schedule Name
  ASHRAETau,                              ! Solar Model Indicator
  ,                                       ! Beam Solar Day Schedule Name
  ,                                       ! Diffuse Solar Day Schedule Name
  0.412,                                  ! ASHRAE Taub {dimensionless}
  2.17;                                   ! ASHRAE Taud {dimensionless}

OS:ComponentData,
  {402637c7-ea7a-46b7-bd8b-9f5dbf8e25eb}, ! Handle
  Component Data 1,                       ! Name
  {649b6cf1-4147-4bb9-b870-330c440d1471}, ! UUID
  {29bc306a-de77-4e38-a95e-ea135ab414f7}, ! Version UUID
  1366311543,                             ! Creation Timestamp
  1366311543,                             ! Version Timestamp
  {8826ac08-8199-42e4-9956-64fb061d907d}; ! Name of Object 1

