
OS:Version,
  {9014ce93-9d24-4aee-91ea-e597ea630a23}, ! Handle
  0.9.3;                                  ! Version Identifier

OS:SizingPeriod:DesignDay,
  {057b7cfa-6c85-46a1-8549-eef75528e26e}, ! Handle
  MASSENA Ann Htg Wind 99.6% Condns WS=>MCDB, ! Name
  -7.9,                                   ! Maximum Dry-Bulb Temperature {C}
  0,                                      ! Daily Dry-Bulb Temperature Range {deltaC}
  -7.9,                                   ! Humidity Indicating Conditions at Maximum Dry-Bulb {BasedOnField A3}
  100570,                                 ! Barometric Pressure {Pa}
  11.8,                                   ! Wind Speed {m/s}
  270,                                    ! Wind Direction {deg}
  0,                                      ! Sky Clearness
  0,                                      ! Rain Indicator
  0,                                      ! Snow Indicator
  21,                                     ! Day of Month
  1,                                      ! Month
  WinterDesignDay,                        ! Day Type
  0,                                      ! Daylight Saving Time Indicator
  Wetbulb,                                ! Humidity Indicating Type
  ,                                       ! Humidity Indicating Day Schedule Name
  DefaultMultipliers,                     ! Dry-Bulb Temperature Range Modifier Type
  ,                                       ! Dry-Bulb Temperature Range Modifier Schedule Name
  ASHRAEClearSky;                         ! Solar Model Indicator

OS:ComponentData,
  {96b26778-a33a-41c1-a550-600b750f6990}, ! Handle
  Component Data 1,                       ! Name
  {8c88a887-0c8f-42f3-9f2e-564ad184525b}, ! UUID
  {c89c68ff-c6fa-469d-8bc7-49694ea65516}, ! Version UUID
  1366309644,                             ! Creation Timestamp
  1366309644,                             ! Version Timestamp
  {057b7cfa-6c85-46a1-8549-eef75528e26e}; ! Name of Object 1

