
OS:Version,
  {fc97455e-c6c6-41c0-acdf-96f84017160d}, ! Handle
  0.9.3;                                  ! Version Identifier

OS:SizingPeriod:DesignDay,
  {7884c41c-df35-429d-be28-ec9e83ab1cf8}, ! Handle
  Wise Lonesome Pine Ann Clg 1% Condns WB=>MDB, ! Name
  26.6,                                   ! Maximum Dry-Bulb Temperature {C}
  9.5,                                    ! Daily Dry-Bulb Temperature Range {deltaC}
  22.3,                                   ! Humidity Indicating Conditions at Maximum Dry-Bulb {BasedOnField A3}
  91888,                                  ! Barometric Pressure {Pa}
  2.5,                                    ! Wind Speed {m/s}
  170,                                    ! Wind Direction {deg}
  0,                                      ! Sky Clearness
  0,                                      ! Rain Indicator
  0,                                      ! Snow Indicator
  21,                                     ! Day of Month
  7,                                      ! Month
  SummerDesignDay,                        ! Day Type
  0,                                      ! Daylight Saving Time Indicator
  Wetbulb,                                ! Humidity Indicating Type
  ,                                       ! Humidity Indicating Day Schedule Name
  DefaultMultipliers,                     ! Dry-Bulb Temperature Range Modifier Type
  ,                                       ! Dry-Bulb Temperature Range Modifier Schedule Name
  ASHRAETau,                              ! Solar Model Indicator
  ,                                       ! Beam Solar Day Schedule Name
  ,                                       ! Diffuse Solar Day Schedule Name
  0.485,                                  ! ASHRAE Taub {dimensionless}
  1.901;                                  ! ASHRAE Taud {dimensionless}

OS:ComponentData,
  {16459d66-0581-48bc-b3ed-6985464adf1f}, ! Handle
  Component Data 1,                       ! Name
  {402841ec-45f0-445f-ad9d-71d6f2bfd7ff}, ! UUID
  {9390c8b6-0dc9-4110-a3c9-d87481e38b86}, ! Version UUID
  1366311230,                             ! Creation Timestamp
  1366311230,                             ! Version Timestamp
  {7884c41c-df35-429d-be28-ec9e83ab1cf8}; ! Name of Object 1

