
OS:Version,
  {9d102f36-8f60-41b3-9d79-322c736a0593}, ! Handle
  0.9.3;                                  ! Version Identifier

OS:SizingPeriod:DesignDay,
  {690c6b8b-34e8-410d-bca4-329fa5379f76}, ! Handle
  Prescott Love Field Ann Clg 2% Condns Enth=>MDB, ! Name
  26.2,                                   ! Maximum Dry-Bulb Temperature {C}
  14.5,                                   ! Daily Dry-Bulb Temperature Range {deltaC}
  57100,                                  ! Humidity Indicating Conditions at Maximum Dry-Bulb {BasedOnField A3}
  84173,                                  ! Barometric Pressure {Pa}
  4.8,                                    ! Wind Speed {m/s}
  240,                                    ! Wind Direction {deg}
  0,                                      ! Sky Clearness
  0,                                      ! Rain Indicator
  0,                                      ! Snow Indicator
  21,                                     ! Day of Month
  7,                                      ! Month
  SummerDesignDay,                        ! Day Type
  0,                                      ! Daylight Saving Time Indicator
  Enthalpy,                               ! Humidity Indicating Type
  ,                                       ! Humidity Indicating Day Schedule Name
  DefaultMultipliers,                     ! Dry-Bulb Temperature Range Modifier Type
  ,                                       ! Dry-Bulb Temperature Range Modifier Schedule Name
  ASHRAETau,                              ! Solar Model Indicator
  ,                                       ! Beam Solar Day Schedule Name
  ,                                       ! Diffuse Solar Day Schedule Name
  0.445,                                  ! ASHRAE Taub {dimensionless}
  1.967;                                  ! ASHRAE Taud {dimensionless}

OS:ComponentData,
  {2fe59459-75ae-4dbc-ae45-b19f1c2515b3}, ! Handle
  Component Data 1,                       ! Name
  {80b73415-5095-4a4f-8ae7-786586d878d0}, ! UUID
  {a6e0756c-259a-4eaf-b040-5ae2a32521a1}, ! Version UUID
  1366306305,                             ! Creation Timestamp
  1366306305,                             ! Version Timestamp
  {690c6b8b-34e8-410d-bca4-329fa5379f76}; ! Name of Object 1

