
OS:Version,
  {f7cb23a2-d050-4589-b6ec-4b0e0ab33a38}, ! Handle
  0.9.3;                                  ! Version Identifier

OS:SizingPeriod:DesignDay,
  {042f8c89-66fc-4c94-b0df-16ee14f3cecd}, ! Handle
  Mount Shasta Ann Clg 2% Condns Enth=>MDB, ! Name
  27.8,                                   ! Maximum Dry-Bulb Temperature {C}
  17,                                     ! Daily Dry-Bulb Temperature Range {deltaC}
  51000,                                  ! Humidity Indicating Conditions at Maximum Dry-Bulb {BasedOnField A3}
  89038,                                  ! Barometric Pressure {Pa}
  1.7,                                    ! Wind Speed {m/s}
  180,                                    ! Wind Direction {deg}
  0,                                      ! Sky Clearness
  0,                                      ! Rain Indicator
  0,                                      ! Snow Indicator
  21,                                     ! Day of Month
  7,                                      ! Month
  SummerDesignDay,                        ! Day Type
  0,                                      ! Daylight Saving Time Indicator
  Enthalpy,                               ! Humidity Indicating Type
  ,                                       ! Humidity Indicating Day Schedule Name
  DefaultMultipliers,                     ! Dry-Bulb Temperature Range Modifier Type
  ,                                       ! Dry-Bulb Temperature Range Modifier Schedule Name
  ASHRAETau,                              ! Solar Model Indicator
  ,                                       ! Beam Solar Day Schedule Name
  ,                                       ! Diffuse Solar Day Schedule Name
  0.334,                                  ! ASHRAE Taub {dimensionless}
  2.582;                                  ! ASHRAE Taud {dimensionless}

