
OS:Version,
  {9c2ffbef-5940-4b91-bd02-82e772249e43}, ! Handle
  0.9.3;                                  ! Version Identifier

OS:SizingPeriod:DesignDay,
  {8652f42c-9e96-47ef-8a08-4077b4368bdc}, ! Handle
  Southwest Florida I Ann Htg Wind 99% Condns WS=>MCDB, ! Name
  21.5,                                   ! Maximum Dry-Bulb Temperature {C}
  0,                                      ! Daily Dry-Bulb Temperature Range {deltaC}
  21.5,                                   ! Humidity Indicating Conditions at Maximum Dry-Bulb {BasedOnField A3}
  101217,                                 ! Barometric Pressure {Pa}
  9.8,                                    ! Wind Speed {m/s}
  20,                                     ! Wind Direction {deg}
  0,                                      ! Sky Clearness
  0,                                      ! Rain Indicator
  0,                                      ! Snow Indicator
  21,                                     ! Day of Month
  1,                                      ! Month
  WinterDesignDay,                        ! Day Type
  0,                                      ! Daylight Saving Time Indicator
  Wetbulb,                                ! Humidity Indicating Type
  ,                                       ! Humidity Indicating Day Schedule Name
  DefaultMultipliers,                     ! Dry-Bulb Temperature Range Modifier Type
  ,                                       ! Dry-Bulb Temperature Range Modifier Schedule Name
  ASHRAEClearSky;                         ! Solar Model Indicator

OS:ComponentData,
  {53c09bbe-70b9-4b8f-bc27-0bbe575a6a33}, ! Handle
  Component Data 1,                       ! Name
  {ff651e06-917d-406d-8ad2-a13b4ce37885}, ! UUID
  {51b00ac7-4f15-4584-9b26-1e732f1189e3}, ! Version UUID
  1366306911,                             ! Creation Timestamp
  1366306911,                             ! Version Timestamp
  {8652f42c-9e96-47ef-8a08-4077b4368bdc}; ! Name of Object 1

