
OS:Version,
  {d1963dc2-4133-40df-bc51-d90e17a97121}, ! Handle
  0.9.3;                                  ! Version Identifier

OS:SizingPeriod:DesignDay,
  {b0bb8297-b01f-4ce6-b815-18b8463c5521}, ! Handle
  Valparaiso Hurlburt Ann Clg 2% Condns Enth=>MDB, ! Name
  30,                                     ! Maximum Dry-Bulb Temperature {C}
  8.2,                                    ! Daily Dry-Bulb Temperature Range {deltaC}
  82400,                                  ! Humidity Indicating Conditions at Maximum Dry-Bulb {BasedOnField A3}
  101181,                                 ! Barometric Pressure {Pa}
  4.3,                                    ! Wind Speed {m/s}
  210,                                    ! Wind Direction {deg}
  0,                                      ! Sky Clearness
  0,                                      ! Rain Indicator
  0,                                      ! Snow Indicator
  21,                                     ! Day of Month
  7,                                      ! Month
  SummerDesignDay,                        ! Day Type
  0,                                      ! Daylight Saving Time Indicator
  Enthalpy,                               ! Humidity Indicating Type
  ,                                       ! Humidity Indicating Day Schedule Name
  DefaultMultipliers,                     ! Dry-Bulb Temperature Range Modifier Type
  ,                                       ! Dry-Bulb Temperature Range Modifier Schedule Name
  ASHRAETau,                              ! Solar Model Indicator
  ,                                       ! Beam Solar Day Schedule Name
  ,                                       ! Diffuse Solar Day Schedule Name
  0.528,                                  ! ASHRAE Taub {dimensionless}
  1.902;                                  ! ASHRAE Taud {dimensionless}

OS:ComponentData,
  {9c3aa4a6-6d85-47a9-8ab0-2c8a35577a98}, ! Handle
  Component Data 1,                       ! Name
  {a286bc21-504b-4edc-9a31-34adfc9cda89}, ! UUID
  {8f13e864-7213-45f0-be00-078354065865}, ! Version UUID
  1366306807,                             ! Creation Timestamp
  1366306807,                             ! Version Timestamp
  {b0bb8297-b01f-4ce6-b815-18b8463c5521}; ! Name of Object 1

