
OS:Version,
  {9efb11a2-c472-4969-8b2a-e3455b8e278c}, ! Handle
  0.9.3;                                  ! Version Identifier

OS:SizingPeriod:DesignDay,
  {0f5ac462-0589-421d-9725-5ca4ec9399ef}, ! Handle
  TOPEKA Ann Htg Wind 99% Condns WS=>MCDB, ! Name
  1.1,                                    ! Maximum Dry-Bulb Temperature {C}
  0,                                      ! Daily Dry-Bulb Temperature Range {deltaC}
  1.1,                                    ! Humidity Indicating Conditions at Maximum Dry-Bulb {BasedOnField A3}
  98123,                                  ! Barometric Pressure {Pa}
  10.9,                                   ! Wind Speed {m/s}
  320,                                    ! Wind Direction {deg}
  0,                                      ! Sky Clearness
  0,                                      ! Rain Indicator
  0,                                      ! Snow Indicator
  21,                                     ! Day of Month
  1,                                      ! Month
  WinterDesignDay,                        ! Day Type
  0,                                      ! Daylight Saving Time Indicator
  Wetbulb,                                ! Humidity Indicating Type
  ,                                       ! Humidity Indicating Day Schedule Name
  DefaultMultipliers,                     ! Dry-Bulb Temperature Range Modifier Type
  ,                                       ! Dry-Bulb Temperature Range Modifier Schedule Name
  ASHRAEClearSky;                         ! Solar Model Indicator

OS:ComponentData,
  {84fdb315-4946-44dd-899c-51ef6f5e77b6}, ! Handle
  Component Data 1,                       ! Name
  {d63069f2-3ef6-4f81-ab7b-fd6fb15430f9}, ! UUID
  {f3ffc5c8-993f-402e-ae19-3c44bfae0674}, ! Version UUID
  1366307591,                             ! Creation Timestamp
  1366307591,                             ! Version Timestamp
  {0f5ac462-0589-421d-9725-5ca4ec9399ef}; ! Name of Object 1

