
OS:Version,
  {d5073678-a135-42a8-a197-d96dbb0a9f7e}, ! Handle
  0.9.3;                                  ! Version Identifier

OS:SizingPeriod:DesignDay,
  {cb833425-e88d-4b36-9c66-64ac6e13dfcd}, ! Handle
  TULSA Ann Htg 99% Condns DB,            ! Name
  -8.4,                                   ! Maximum Dry-Bulb Temperature {C}
  0,                                      ! Daily Dry-Bulb Temperature Range {deltaC}
  -8.4,                                   ! Humidity Indicating Conditions at Maximum Dry-Bulb {BasedOnField A3}
  98875,                                  ! Barometric Pressure {Pa}
  4.3,                                    ! Wind Speed {m/s}
  0,                                      ! Wind Direction {deg}
  0,                                      ! Sky Clearness
  0,                                      ! Rain Indicator
  0,                                      ! Snow Indicator
  21,                                     ! Day of Month
  1,                                      ! Month
  WinterDesignDay,                        ! Day Type
  0,                                      ! Daylight Saving Time Indicator
  Wetbulb,                                ! Humidity Indicating Type
  ,                                       ! Humidity Indicating Day Schedule Name
  DefaultMultipliers,                     ! Dry-Bulb Temperature Range Modifier Type
  ,                                       ! Dry-Bulb Temperature Range Modifier Schedule Name
  ASHRAEClearSky;                         ! Solar Model Indicator

OS:ComponentData,
  {6cf84939-36f7-415e-ab82-8c343102f023}, ! Handle
  Component Data 1,                       ! Name
  {14d228b3-dc09-485d-91fd-5e183653cc3b}, ! UUID
  {1d79a2bd-ef5f-46c8-a395-906f954a02b7}, ! Version UUID
  1366309948,                             ! Creation Timestamp
  1366309948,                             ! Version Timestamp
  {cb833425-e88d-4b36-9c66-64ac6e13dfcd}; ! Name of Object 1

