
OS:Version,
  {6b0b67f5-92b4-49f1-ab5c-020a91474d4f}, ! Handle
  0.9.3;                                  ! Version Identifier

OS:SizingPeriod:DesignDay,
  {d92302ba-8932-488f-b8ac-97187ccc54ca}, ! Handle
  Nasa Shuttle Fclty Ann Clg 1% Condns DP=>MDB, ! Name
  28.5,                                   ! Maximum Dry-Bulb Temperature {C}
  8.7,                                    ! Daily Dry-Bulb Temperature Range {deltaC}
  25.4,                                   ! Humidity Indicating Conditions at Maximum Dry-Bulb {BasedOnField A3}
  101289,                                 ! Barometric Pressure {Pa}
  3.5,                                    ! Wind Speed {m/s}
  240,                                    ! Wind Direction {deg}
  0,                                      ! Sky Clearness
  0,                                      ! Rain Indicator
  0,                                      ! Snow Indicator
  21,                                     ! Day of Month
  7,                                      ! Month
  SummerDesignDay,                        ! Day Type
  0,                                      ! Daylight Saving Time Indicator
  Dewpoint,                               ! Humidity Indicating Type
  ,                                       ! Humidity Indicating Day Schedule Name
  DefaultMultipliers,                     ! Dry-Bulb Temperature Range Modifier Type
  ,                                       ! Dry-Bulb Temperature Range Modifier Schedule Name
  ASHRAETau,                              ! Solar Model Indicator
  ,                                       ! Beam Solar Day Schedule Name
  ,                                       ! Diffuse Solar Day Schedule Name
  0.504,                                  ! ASHRAE Taub {dimensionless}
  1.981;                                  ! ASHRAE Taud {dimensionless}

OS:ComponentData,
  {812707b2-4ec3-4c54-9de6-17d2168999ef}, ! Handle
  Component Data 1,                       ! Name
  {73fce316-e828-413f-b6fe-9e905e3b1dd7}, ! UUID
  {e07ca53a-8413-4ba4-bf9f-33054028e93c}, ! Version UUID
  1366306878,                             ! Creation Timestamp
  1366306878,                             ! Version Timestamp
  {d92302ba-8932-488f-b8ac-97187ccc54ca}; ! Name of Object 1

