
OS:Version,
  {78eeaef5-ac54-47c7-a0d6-888adebedaba}, ! Handle
  0.9.3;                                  ! Version Identifier

OS:SizingPeriod:DesignDay,
  {584a70a5-e6c5-4dcc-bc36-6c480dd8b3b2}, ! Handle
  Mccomb Pike County Ap Ann Clg 2% Condns DB=>MWB, ! Name
  32.7,                                   ! Maximum Dry-Bulb Temperature {C}
  10.8,                                   ! Daily Dry-Bulb Temperature Range {deltaC}
  24.4,                                   ! Humidity Indicating Conditions at Maximum Dry-Bulb {BasedOnField A3}
  99820,                                  ! Barometric Pressure {Pa}
  2.9,                                    ! Wind Speed {m/s}
  250,                                    ! Wind Direction {deg}
  0,                                      ! Sky Clearness
  0,                                      ! Rain Indicator
  0,                                      ! Snow Indicator
  21,                                     ! Day of Month
  7,                                      ! Month
  SummerDesignDay,                        ! Day Type
  0,                                      ! Daylight Saving Time Indicator
  Wetbulb,                                ! Humidity Indicating Type
  ,                                       ! Humidity Indicating Day Schedule Name
  DefaultMultipliers,                     ! Dry-Bulb Temperature Range Modifier Type
  ,                                       ! Dry-Bulb Temperature Range Modifier Schedule Name
  ASHRAETau,                              ! Solar Model Indicator
  ,                                       ! Beam Solar Day Schedule Name
  ,                                       ! Diffuse Solar Day Schedule Name
  0.539,                                  ! ASHRAE Taub {dimensionless}
  1.852;                                  ! ASHRAE Taud {dimensionless}

OS:ComponentData,
  {6f4f5531-32e3-4b1f-8abb-2ae13cd2342a}, ! Handle
  Component Data 1,                       ! Name
  {af2ad0bf-d40a-4084-bc41-8a0ff13b6497}, ! UUID
  {19789570-13b2-4cac-ae34-3a0f2b724869}, ! Version UUID
  1366308656,                             ! Creation Timestamp
  1366308656,                             ! Version Timestamp
  {584a70a5-e6c5-4dcc-bc36-6c480dd8b3b2}; ! Name of Object 1

