
OS:Version,
  {16d595dc-b4b2-4af7-9c3c-c5b8553296ae}, ! Handle
  0.9.3;                                  ! Version Identifier

OS:SizingPeriod:DesignDay,
  {6bc126ff-db5e-4732-b7b6-b6a89f22f5a3}, ! Handle
  Wheaton Ndb  Awos Ann Hum_n 99.6% Condns DP=>MCDB, ! Name
  -28.3,                                  ! Maximum Dry-Bulb Temperature {C}
  0,                                      ! Daily Dry-Bulb Temperature Range {deltaC}
  -34.1,                                  ! Humidity Indicating Conditions at Maximum Dry-Bulb {BasedOnField A3}
  97621,                                  ! Barometric Pressure {Pa}
  2.6,                                    ! Wind Speed {m/s}
  300,                                    ! Wind Direction {deg}
  0,                                      ! Sky Clearness
  0,                                      ! Rain Indicator
  0,                                      ! Snow Indicator
  21,                                     ! Day of Month
  1,                                      ! Month
  WinterDesignDay,                        ! Day Type
  0,                                      ! Daylight Saving Time Indicator
  Dewpoint,                               ! Humidity Indicating Type
  ,                                       ! Humidity Indicating Day Schedule Name
  DefaultMultipliers,                     ! Dry-Bulb Temperature Range Modifier Type
  ,                                       ! Dry-Bulb Temperature Range Modifier Schedule Name
  ASHRAEClearSky;                         ! Solar Model Indicator

OS:ComponentData,
  {36a446a5-ebbb-4da7-aeb9-5fc8cdaf9345}, ! Handle
  Component Data 1,                       ! Name
  {0dfb7b75-1767-4a2d-ab12-638a219074bc}, ! UUID
  {c88ad007-abd9-46bd-ac33-d5cc57752380}, ! Version UUID
  1366308451,                             ! Creation Timestamp
  1366308451,                             ! Version Timestamp
  {6bc126ff-db5e-4732-b7b6-b6a89f22f5a3}; ! Name of Object 1

