
OS:Version,
  {9bb096f9-771b-4ee8-841c-a1bc358c7352}, ! Handle
  0.9.3;                                  ! Version Identifier

OS:SizingPeriod:DesignDay,
  {4734f2e0-4bb0-437e-84e6-2e5fcd92f3a0}, ! Handle
  Wichita Mid Continent Ap Ann Clg 2% Condns DP=>MDB, ! Name
  27,                                     ! Maximum Dry-Bulb Temperature {C}
  12.1,                                   ! Daily Dry-Bulb Temperature Range {deltaC}
  22,                                     ! Humidity Indicating Conditions at Maximum Dry-Bulb {BasedOnField A3}
  96588,                                  ! Barometric Pressure {Pa}
  7.1,                                    ! Wind Speed {m/s}
  190,                                    ! Wind Direction {deg}
  0,                                      ! Sky Clearness
  0,                                      ! Rain Indicator
  0,                                      ! Snow Indicator
  21,                                     ! Day of Month
  7,                                      ! Month
  SummerDesignDay,                        ! Day Type
  0,                                      ! Daylight Saving Time Indicator
  Dewpoint,                               ! Humidity Indicating Type
  ,                                       ! Humidity Indicating Day Schedule Name
  DefaultMultipliers,                     ! Dry-Bulb Temperature Range Modifier Type
  ,                                       ! Dry-Bulb Temperature Range Modifier Schedule Name
  ASHRAETau,                              ! Solar Model Indicator
  ,                                       ! Beam Solar Day Schedule Name
  ,                                       ! Diffuse Solar Day Schedule Name
  0.419,                                  ! ASHRAE Taub {dimensionless}
  2.207;                                  ! ASHRAE Taud {dimensionless}

OS:ComponentData,
  {2d7e0342-1040-4751-809f-e168f2fc0483}, ! Handle
  Component Data 1,                       ! Name
  {d93b3a32-811d-480d-ab15-f4d54f6fcdd2}, ! UUID
  {02ca0096-8465-4c96-abd0-7787f258a3f9}, ! Version UUID
  1366307604,                             ! Creation Timestamp
  1366307604,                             ! Version Timestamp
  {4734f2e0-4bb0-437e-84e6-2e5fcd92f3a0}; ! Name of Object 1

