
OS:Version,
  {728c3b9a-6a35-4dbb-81e2-48c3d3f6c25e}, ! Handle
  0.9.3;                                  ! Version Identifier

OS:SizingPeriod:DesignDay,
  {7e1485a4-3e68-461b-9bcc-e3c879da9159}, ! Handle
  MASSENA Ann Htg 99.6% Condns DB,        ! Name
  -25.9,                                  ! Maximum Dry-Bulb Temperature {C}
  0,                                      ! Daily Dry-Bulb Temperature Range {deltaC}
  -25.9,                                  ! Humidity Indicating Conditions at Maximum Dry-Bulb {BasedOnField A3}
  100570,                                 ! Barometric Pressure {Pa}
  1.8,                                    ! Wind Speed {m/s}
  270,                                    ! Wind Direction {deg}
  0,                                      ! Sky Clearness
  0,                                      ! Rain Indicator
  0,                                      ! Snow Indicator
  21,                                     ! Day of Month
  1,                                      ! Month
  WinterDesignDay,                        ! Day Type
  0,                                      ! Daylight Saving Time Indicator
  Wetbulb,                                ! Humidity Indicating Type
  ,                                       ! Humidity Indicating Day Schedule Name
  DefaultMultipliers,                     ! Dry-Bulb Temperature Range Modifier Type
  ,                                       ! Dry-Bulb Temperature Range Modifier Schedule Name
  ASHRAEClearSky;                         ! Solar Model Indicator

OS:ComponentData,
  {ba11d582-ddd9-4779-a0c0-9c072ae19fed}, ! Handle
  Component Data 1,                       ! Name
  {bc6e22c8-ae7a-4892-8d6d-98910f24b40a}, ! UUID
  {4b399030-810c-4ca4-bccf-c0d4879a42e3}, ! Version UUID
  1366309644,                             ! Creation Timestamp
  1366309644,                             ! Version Timestamp
  {7e1485a4-3e68-461b-9bcc-e3c879da9159}; ! Name of Object 1

