
OS:Version,
  {fd5a3df4-9aa0-4a17-9b3e-984b67aae5c9}, ! Handle
  0.9.3;                                  ! Version Identifier

OS:SizingPeriod:DesignDay,
  {d155fdf2-e9ab-4451-984b-1741fb262bba}, ! Handle
  Salt Lake City Ann Htg Wind 99% Condns WS=>MCDB, ! Name
  5.8,                                    ! Maximum Dry-Bulb Temperature {C}
  0,                                      ! Daily Dry-Bulb Temperature Range {deltaC}
  5.8,                                    ! Humidity Indicating Conditions at Maximum Dry-Bulb {BasedOnField A3}
  86779,                                  ! Barometric Pressure {Pa}
  11.1,                                   ! Wind Speed {m/s}
  150,                                    ! Wind Direction {deg}
  0,                                      ! Sky Clearness
  0,                                      ! Rain Indicator
  0,                                      ! Snow Indicator
  21,                                     ! Day of Month
  1,                                      ! Month
  WinterDesignDay,                        ! Day Type
  0,                                      ! Daylight Saving Time Indicator
  Wetbulb,                                ! Humidity Indicating Type
  ,                                       ! Humidity Indicating Day Schedule Name
  DefaultMultipliers,                     ! Dry-Bulb Temperature Range Modifier Type
  ,                                       ! Dry-Bulb Temperature Range Modifier Schedule Name
  ASHRAEClearSky;                         ! Solar Model Indicator

OS:ComponentData,
  {d5fe5bb9-fc6d-45de-a3fa-b9bd980c8523}, ! Handle
  Component Data 1,                       ! Name
  {27b9eb76-8bcb-4c6e-803c-89d3a4c07366}, ! UUID
  {588303eb-6a87-4906-9517-2bbe083ae794}, ! Version UUID
  1366310992,                             ! Creation Timestamp
  1366310992,                             ! Version Timestamp
  {d155fdf2-e9ab-4451-984b-1741fb262bba}; ! Name of Object 1

