
OS:Version,
  {1c4bd478-7df4-4c6a-9f97-185e32fd19da}, ! Handle
  0.9.3;                                  ! Version Identifier

OS:SizingPeriod:DesignDay,
  {557f8b4b-7efa-4915-b09e-5fdb5d9c57df}, ! Handle
  Orlando Ann Hum_n 99% Condns DP=>MCDB,  ! Name
  11.3,                                   ! Maximum Dry-Bulb Temperature {C}
  0,                                      ! Daily Dry-Bulb Temperature Range {deltaC}
  -2.4,                                   ! Humidity Indicating Conditions at Maximum Dry-Bulb {BasedOnField A3}
  100941,                                 ! Barometric Pressure {Pa}
  3.5,                                    ! Wind Speed {m/s}
  310,                                    ! Wind Direction {deg}
  0,                                      ! Sky Clearness
  0,                                      ! Rain Indicator
  0,                                      ! Snow Indicator
  21,                                     ! Day of Month
  12,                                     ! Month
  WinterDesignDay,                        ! Day Type
  0,                                      ! Daylight Saving Time Indicator
  Dewpoint,                               ! Humidity Indicating Type
  ,                                       ! Humidity Indicating Day Schedule Name
  DefaultMultipliers,                     ! Dry-Bulb Temperature Range Modifier Type
  ,                                       ! Dry-Bulb Temperature Range Modifier Schedule Name
  ASHRAEClearSky;                         ! Solar Model Indicator

OS:ComponentData,
  {9a3d1bb4-12ce-4509-95b4-337b7b4868a6}, ! Handle
  Component Data 1,                       ! Name
  {a28996ab-3163-4c2a-a0c2-b93e1360e77c}, ! UUID
  {d8bdfec0-2853-46e3-8de0-2cfde922249f}, ! Version UUID
  1366306888,                             ! Creation Timestamp
  1366306888,                             ! Version Timestamp
  {557f8b4b-7efa-4915-b09e-5fdb5d9c57df}; ! Name of Object 1

