
OS:Version,
  {18839ec8-2a1f-4c0d-97d8-b91c0b939604}, ! Handle
  0.9.3;                                  ! Version Identifier

OS:SizingPeriod:DesignDay,
  {2b16849e-8f17-488e-8381-8aa8f51c0899}, ! Handle
  Texarkana Webb Field Ann Clg .4% Condns DP=>MDB, ! Name
  29.3,                                   ! Maximum Dry-Bulb Temperature {C}
  10.7,                                   ! Daily Dry-Bulb Temperature Range {deltaC}
  24.9,                                   ! Humidity Indicating Conditions at Maximum Dry-Bulb {BasedOnField A3}
  100011,                                 ! Barometric Pressure {Pa}
  3.4,                                    ! Wind Speed {m/s}
  190,                                    ! Wind Direction {deg}
  0,                                      ! Sky Clearness
  0,                                      ! Rain Indicator
  0,                                      ! Snow Indicator
  21,                                     ! Day of Month
  7,                                      ! Month
  SummerDesignDay,                        ! Day Type
  0,                                      ! Daylight Saving Time Indicator
  Dewpoint,                               ! Humidity Indicating Type
  ,                                       ! Humidity Indicating Day Schedule Name
  DefaultMultipliers,                     ! Dry-Bulb Temperature Range Modifier Type
  ,                                       ! Dry-Bulb Temperature Range Modifier Schedule Name
  ASHRAETau,                              ! Solar Model Indicator
  ,                                       ! Beam Solar Day Schedule Name
  ,                                       ! Diffuse Solar Day Schedule Name
  0.486,                                  ! ASHRAE Taub {dimensionless}
  2.004;                                  ! ASHRAE Taud {dimensionless}

OS:ComponentData,
  {fa78c5a7-0d61-4ad9-8625-985097272f1a}, ! Handle
  Component Data 1,                       ! Name
  {360562ca-202f-4c81-97d7-a070a886f96c}, ! UUID
  {11d39f96-28ed-4882-996c-1f9fe1f20087}, ! Version UUID
  1366306255,                             ! Creation Timestamp
  1366306255,                             ! Version Timestamp
  {2b16849e-8f17-488e-8381-8aa8f51c0899}; ! Name of Object 1

