
OS:Version,
  {fb1e01ec-2cfb-4f01-91c9-4ff2b6e4abf3}, ! Handle
  0.9.3;                                  ! Version Identifier

OS:SizingPeriod:DesignDay,
  {700b156f-6ed1-45ae-95a9-08acc2169413}, ! Handle
  Mountain View Moffett Fld Nas Ann Hum_n 99% Condns DP=>MCDB, ! Name
  10.3,                                   ! Maximum Dry-Bulb Temperature {C}
  0,                                      ! Daily Dry-Bulb Temperature Range {deltaC}
  -3.9,                                   ! Humidity Indicating Conditions at Maximum Dry-Bulb {BasedOnField A3}
  101181,                                 ! Barometric Pressure {Pa}
  0.5,                                    ! Wind Speed {m/s}
  270,                                    ! Wind Direction {deg}
  0,                                      ! Sky Clearness
  0,                                      ! Rain Indicator
  0,                                      ! Snow Indicator
  21,                                     ! Day of Month
  12,                                     ! Month
  WinterDesignDay,                        ! Day Type
  0,                                      ! Daylight Saving Time Indicator
  Dewpoint,                               ! Humidity Indicating Type
  ,                                       ! Humidity Indicating Day Schedule Name
  DefaultMultipliers,                     ! Dry-Bulb Temperature Range Modifier Type
  ,                                       ! Dry-Bulb Temperature Range Modifier Schedule Name
  ASHRAEClearSky;                         ! Solar Model Indicator

OS:ComponentData,
  {7ef3389f-862d-45b3-a8b7-a9c6806229fb}, ! Handle
  Component Data 1,                       ! Name
  {6c24ee1c-1e05-4527-b8af-ffcdf53e42fc}, ! UUID
  {4b7daeae-bd7e-468a-9bd1-0a6930773b31}, ! Version UUID
  1366306512,                             ! Creation Timestamp
  1366306512,                             ! Version Timestamp
  {700b156f-6ed1-45ae-95a9-08acc2169413}; ! Name of Object 1

