
OS:Version,
  {fa9c8c32-68f3-4c64-b91f-93a7d7ba4cea}, ! Handle
  0.9.3;                                  ! Version Identifier

OS:SizingPeriod:DesignDay,
  {ccc6aeaa-a827-4e4b-8c49-2f18031bbaad}, ! Handle
  Milwaukee Mitchell Intl Ap Ann Clg 2% Condns Enth=>MDB, ! Name
  27.2,                                   ! Maximum Dry-Bulb Temperature {C}
  8.7,                                    ! Daily Dry-Bulb Temperature Range {deltaC}
  68600,                                  ! Humidity Indicating Conditions at Maximum Dry-Bulb {BasedOnField A3}
  98886,                                  ! Barometric Pressure {Pa}
  6.4,                                    ! Wind Speed {m/s}
  240,                                    ! Wind Direction {deg}
  0,                                      ! Sky Clearness
  0,                                      ! Rain Indicator
  0,                                      ! Snow Indicator
  21,                                     ! Day of Month
  7,                                      ! Month
  SummerDesignDay,                        ! Day Type
  0,                                      ! Daylight Saving Time Indicator
  Enthalpy,                               ! Humidity Indicating Type
  ,                                       ! Humidity Indicating Day Schedule Name
  DefaultMultipliers,                     ! Dry-Bulb Temperature Range Modifier Type
  ,                                       ! Dry-Bulb Temperature Range Modifier Schedule Name
  ASHRAETau,                              ! Solar Model Indicator
  ,                                       ! Beam Solar Day Schedule Name
  ,                                       ! Diffuse Solar Day Schedule Name
  0.452,                                  ! ASHRAE Taub {dimensionless}
  2.061;                                  ! ASHRAE Taud {dimensionless}

OS:ComponentData,
  {223a74e5-a04e-48fc-81d3-be12450b19e5}, ! Handle
  Component Data 1,                       ! Name
  {df90d9f3-0986-467f-8de0-bbef082e549a}, ! UUID
  {94276954-a876-41d1-a1ab-1ef0c0df7c85}, ! Version UUID
  1366311559,                             ! Creation Timestamp
  1366311559,                             ! Version Timestamp
  {ccc6aeaa-a827-4e4b-8c49-2f18031bbaad}; ! Name of Object 1

