
OS:Version,
  {f8cb2f1f-56e2-4d5c-a0b4-047cfc129a7d}, ! Handle
  0.9.3;                                  ! Version Identifier

OS:SizingPeriod:DesignDay,
  {3b450576-c4d1-42ad-a24e-bfae921ff287}, ! Handle
  ROANOKE Ann Clg .4% Condns WB=>MDB,     ! Name
  30.4,                                   ! Maximum Dry-Bulb Temperature {C}
  10.6,                                   ! Daily Dry-Bulb Temperature Range {deltaC}
  24.1,                                   ! Humidity Indicating Conditions at Maximum Dry-Bulb {BasedOnField A3}
  97098,                                  ! Barometric Pressure {Pa}
  4,                                      ! Wind Speed {m/s}
  280,                                    ! Wind Direction {deg}
  0,                                      ! Sky Clearness
  0,                                      ! Rain Indicator
  0,                                      ! Snow Indicator
  21,                                     ! Day of Month
  7,                                      ! Month
  SummerDesignDay,                        ! Day Type
  0,                                      ! Daylight Saving Time Indicator
  Wetbulb,                                ! Humidity Indicating Type
  ,                                       ! Humidity Indicating Day Schedule Name
  DefaultMultipliers,                     ! Dry-Bulb Temperature Range Modifier Type
  ,                                       ! Dry-Bulb Temperature Range Modifier Schedule Name
  ASHRAETau,                              ! Solar Model Indicator
  ,                                       ! Beam Solar Day Schedule Name
  ,                                       ! Diffuse Solar Day Schedule Name
  0.529,                                  ! ASHRAE Taub {dimensionless}
  1.818;                                  ! ASHRAE Taud {dimensionless}

OS:ComponentData,
  {90dc686f-b326-4530-be99-f768b31aab1f}, ! Handle
  Component Data 1,                       ! Name
  {7d08cf37-ae41-4ac7-9839-a998bb4b19ac}, ! UUID
  {398735c7-ea6a-494d-89d1-9d3a5a543653}, ! Version UUID
  1366311180,                             ! Creation Timestamp
  1366311180,                             ! Version Timestamp
  {3b450576-c4d1-42ad-a24e-bfae921ff287}; ! Name of Object 1

