
OS:Version,
  {382d8900-f682-4ca9-9957-8d5f3b0ab40c}, ! Handle
  0.9.3;                                  ! Version Identifier

OS:SizingPeriod:DesignDay,
  {18c31de3-4513-47e1-9e86-c77a54ddc322}, ! Handle
  Worchester Regional Arpt Ann Htg Wind 99% Condns WS=>MCDB, ! Name
  -4.9,                                   ! Maximum Dry-Bulb Temperature {C}
  0,                                      ! Daily Dry-Bulb Temperature Range {deltaC}
  -4.9,                                   ! Humidity Indicating Conditions at Maximum Dry-Bulb {BasedOnField A3}
  97773,                                  ! Barometric Pressure {Pa}
  12.4,                                   ! Wind Speed {m/s}
  280,                                    ! Wind Direction {deg}
  0,                                      ! Sky Clearness
  0,                                      ! Rain Indicator
  0,                                      ! Snow Indicator
  21,                                     ! Day of Month
  1,                                      ! Month
  WinterDesignDay,                        ! Day Type
  0,                                      ! Daylight Saving Time Indicator
  Wetbulb,                                ! Humidity Indicating Type
  ,                                       ! Humidity Indicating Day Schedule Name
  DefaultMultipliers,                     ! Dry-Bulb Temperature Range Modifier Type
  ,                                       ! Dry-Bulb Temperature Range Modifier Schedule Name
  ASHRAEClearSky;                         ! Solar Model Indicator

OS:ComponentData,
  {401d323d-ec6d-425e-b762-b6c80fb06239}, ! Handle
  Component Data 1,                       ! Name
  {8d62eeb9-1d2a-44ac-a914-5c494ab626b7}, ! UUID
  {f09b16a6-b8b9-4eb2-84f5-f04c6261a108}, ! Version UUID
  1366307830,                             ! Creation Timestamp
  1366307830,                             ! Version Timestamp
  {18c31de3-4513-47e1-9e86-c77a54ddc322}; ! Name of Object 1

