
OS:Version,
  {cce2ec84-39b3-45a2-9e78-aeac19992fb9}, ! Handle
  0.9.3;                                  ! Version Identifier

OS:SizingPeriod:DesignDay,
  {0023af12-cb77-4e00-8a8b-2547ccbd33e6}, ! Handle
  TALKEETNA Ann Clg 2% Condns DP=>MDB,    ! Name
  16,                                     ! Maximum Dry-Bulb Temperature {C}
  8.8,                                    ! Daily Dry-Bulb Temperature Range {deltaC}
  12.5,                                   ! Humidity Indicating Conditions at Maximum Dry-Bulb {BasedOnField A3}
  100070,                                 ! Barometric Pressure {Pa}
  2.9,                                    ! Wind Speed {m/s}
  180,                                    ! Wind Direction {deg}
  0,                                      ! Sky Clearness
  0,                                      ! Rain Indicator
  0,                                      ! Snow Indicator
  21,                                     ! Day of Month
  7,                                      ! Month
  SummerDesignDay,                        ! Day Type
  0,                                      ! Daylight Saving Time Indicator
  Dewpoint,                               ! Humidity Indicating Type
  ,                                       ! Humidity Indicating Day Schedule Name
  DefaultMultipliers,                     ! Dry-Bulb Temperature Range Modifier Type
  ,                                       ! Dry-Bulb Temperature Range Modifier Schedule Name
  ASHRAETau,                              ! Solar Model Indicator
  ,                                       ! Beam Solar Day Schedule Name
  ,                                       ! Diffuse Solar Day Schedule Name
  0.379,                                  ! ASHRAE Taub {dimensionless}
  2.177;                                  ! ASHRAE Taud {dimensionless}

OS:ComponentData,
  {35b163aa-adc2-444a-b0e1-a0dd023677ef}, ! Handle
  Component Data 1,                       ! Name
  {20934382-30c7-4ea6-9038-137ea31de5a9}, ! UUID
  {0795952b-4c1f-497a-a890-0b8df4a79cf9}, ! Version UUID
  1366305583,                             ! Creation Timestamp
  1366305583,                             ! Version Timestamp
  {0023af12-cb77-4e00-8a8b-2547ccbd33e6}; ! Name of Object 1

