
OS:Version,
  {11d0def5-3efc-4742-a865-ca1975e007fe}, ! Handle
  0.9.3;                                  ! Version Identifier

OS:SizingPeriod:DesignDay,
  {cc1b021d-8fd8-4254-be84-ebd64e135d02}, ! Handle
  Mitchell  Awos Ann Htg 99.6% Condns DB, ! Name
  -23.9,                                  ! Maximum Dry-Bulb Temperature {C}
  0,                                      ! Daily Dry-Bulb Temperature Range {deltaC}
  -23.9,                                  ! Humidity Indicating Conditions at Maximum Dry-Bulb {BasedOnField A3}
  96646,                                  ! Barometric Pressure {Pa}
  4.6,                                    ! Wind Speed {m/s}
  320,                                    ! Wind Direction {deg}
  0,                                      ! Sky Clearness
  0,                                      ! Rain Indicator
  0,                                      ! Snow Indicator
  21,                                     ! Day of Month
  1,                                      ! Month
  WinterDesignDay,                        ! Day Type
  0,                                      ! Daylight Saving Time Indicator
  Wetbulb,                                ! Humidity Indicating Type
  ,                                       ! Humidity Indicating Day Schedule Name
  DefaultMultipliers,                     ! Dry-Bulb Temperature Range Modifier Type
  ,                                       ! Dry-Bulb Temperature Range Modifier Schedule Name
  ASHRAEClearSky;                         ! Solar Model Indicator

OS:ComponentData,
  {c9526cc1-db96-40a6-abe6-83317cf5542a}, ! Handle
  Component Data 1,                       ! Name
  {f2bcc52a-2e67-4b17-b9f4-a023cd0ac502}, ! UUID
  {396c4a9b-5efd-4719-a59a-ff2438a24018}, ! Version UUID
  1366310411,                             ! Creation Timestamp
  1366310411,                             ! Version Timestamp
  {cc1b021d-8fd8-4254-be84-ebd64e135d02}; ! Name of Object 1

