
OS:Version,
  {b939b70d-e67a-4943-a218-4b37e9ae1e23}, ! Handle
  0.9.3;                                  ! Version Identifier

OS:SizingPeriod:DesignDay,
  {46fb760a-e863-4277-a497-cc4d8eef8cfd}, ! Handle
  WICHITA_FALLS Ann Htg 99.6% Condns DB,  ! Name
  -9.3,                                   ! Maximum Dry-Bulb Temperature {C}
  0,                                      ! Daily Dry-Bulb Temperature Range {deltaC}
  -9.3,                                   ! Humidity Indicating Conditions at Maximum Dry-Bulb {BasedOnField A3}
  97609,                                  ! Barometric Pressure {Pa}
  5.7,                                    ! Wind Speed {m/s}
  0,                                      ! Wind Direction {deg}
  0,                                      ! Sky Clearness
  0,                                      ! Rain Indicator
  0,                                      ! Snow Indicator
  21,                                     ! Day of Month
  1,                                      ! Month
  WinterDesignDay,                        ! Day Type
  0,                                      ! Daylight Saving Time Indicator
  Wetbulb,                                ! Humidity Indicating Type
  ,                                       ! Humidity Indicating Day Schedule Name
  DefaultMultipliers,                     ! Dry-Bulb Temperature Range Modifier Type
  ,                                       ! Dry-Bulb Temperature Range Modifier Schedule Name
  ASHRAEClearSky;                         ! Solar Model Indicator

OS:ComponentData,
  {a2e2e054-7ab4-4a19-ba72-aec5ca94ac63}, ! Handle
  Component Data 1,                       ! Name
  {2fec8bad-023a-482a-bd86-9061cb859725}, ! UUID
  {0c27eed4-1fbd-4955-beaa-7b61f59d98f8}, ! Version UUID
  1366310927,                             ! Creation Timestamp
  1366310927,                             ! Version Timestamp
  {46fb760a-e863-4277-a497-cc4d8eef8cfd}; ! Name of Object 1

