
OS:Version,
  {1e433aa9-21d8-470f-8496-048d7ab5208d}, ! Handle
  0.9.3;                                  ! Version Identifier

OS:SizingPeriod:DesignDay,
  {36ce0734-4a9c-4a5a-b171-9830e57b1d8f}, ! Handle
  TUCSON Ann Clg 1% Condns WB=>MDB,       ! Name
  31.3,                                   ! Maximum Dry-Bulb Temperature {C}
  13.8,                                   ! Daily Dry-Bulb Temperature Range {deltaC}
  22,                                     ! Humidity Indicating Conditions at Maximum Dry-Bulb {BasedOnField A3}
  92310,                                  ! Barometric Pressure {Pa}
  5,                                      ! Wind Speed {m/s}
  300,                                    ! Wind Direction {deg}
  0,                                      ! Sky Clearness
  0,                                      ! Rain Indicator
  0,                                      ! Snow Indicator
  21,                                     ! Day of Month
  7,                                      ! Month
  SummerDesignDay,                        ! Day Type
  0,                                      ! Daylight Saving Time Indicator
  Wetbulb,                                ! Humidity Indicating Type
  ,                                       ! Humidity Indicating Day Schedule Name
  DefaultMultipliers,                     ! Dry-Bulb Temperature Range Modifier Type
  ,                                       ! Dry-Bulb Temperature Range Modifier Schedule Name
  ASHRAETau,                              ! Solar Model Indicator
  ,                                       ! Beam Solar Day Schedule Name
  ,                                       ! Diffuse Solar Day Schedule Name
  0.555,                                  ! ASHRAE Taub {dimensionless}
  1.73;                                   ! ASHRAE Taud {dimensionless}

OS:ComponentData,
  {b9d7e974-b026-4858-96b4-2afbdcb136ec}, ! Handle
  Component Data 1,                       ! Name
  {c13addac-50eb-4c93-9de0-a303c735d26b}, ! UUID
  {513dd988-591e-494a-ad8f-44e408e011ad}, ! Version UUID
  1366306318,                             ! Creation Timestamp
  1366306318,                             ! Version Timestamp
  {36ce0734-4a9c-4a5a-b171-9830e57b1d8f}; ! Name of Object 1

