
OS:Version,
  {d07461cc-098d-45c2-9a8f-c4a8892fd4f7}, ! Handle
  0.9.3;                                  ! Version Identifier

OS:SizingPeriod:DesignDay,
  {00040fdb-582e-4d5e-9ab6-8226e5f009fa}, ! Handle
  Missoula Ann Htg Wind 99.6% Condns WS=>MCDB, ! Name
  -10.1,                                  ! Maximum Dry-Bulb Temperature {C}
  0,                                      ! Daily Dry-Bulb Temperature Range {deltaC}
  -10.1,                                  ! Humidity Indicating Conditions at Maximum Dry-Bulb {BasedOnField A3}
  90180,                                  ! Barometric Pressure {Pa}
  11.3,                                   ! Wind Speed {m/s}
  90,                                     ! Wind Direction {deg}
  0,                                      ! Sky Clearness
  0,                                      ! Rain Indicator
  0,                                      ! Snow Indicator
  21,                                     ! Day of Month
  12,                                     ! Month
  WinterDesignDay,                        ! Day Type
  0,                                      ! Daylight Saving Time Indicator
  Wetbulb,                                ! Humidity Indicating Type
  ,                                       ! Humidity Indicating Day Schedule Name
  DefaultMultipliers,                     ! Dry-Bulb Temperature Range Modifier Type
  ,                                       ! Dry-Bulb Temperature Range Modifier Schedule Name
  ASHRAEClearSky;                         ! Solar Model Indicator

OS:ComponentData,
  {6a651865-b0f4-4db9-b672-26ce3a468acc}, ! Handle
  Component Data 1,                       ! Name
  {0859ee77-ba80-4f8c-b116-c9782f2b959c}, ! UUID
  {dc0341c8-3de9-40a4-9727-059e1b63142c}, ! Version UUID
  1366308844,                             ! Creation Timestamp
  1366308844,                             ! Version Timestamp
  {00040fdb-582e-4d5e-9ab6-8226e5f009fa}; ! Name of Object 1

