
OS:Version,
  {c6b4d895-7952-4a16-8ea9-cc3dfa84c280}, ! Handle
  0.9.3;                                  ! Version Identifier

OS:SizingPeriod:DesignDay,
  {b24f8d85-8cfd-4f9c-b771-a7bb0d9a5a71}, ! Handle
  Omaha/Eppley Airfield Ann Clg 2% Condns DP=>MDB, ! Name
  27.8,                                   ! Maximum Dry-Bulb Temperature {C}
  11,                                     ! Daily Dry-Bulb Temperature Range {deltaC}
  22.6,                                   ! Humidity Indicating Conditions at Maximum Dry-Bulb {BasedOnField A3}
  97784,                                  ! Barometric Pressure {Pa}
  6.1,                                    ! Wind Speed {m/s}
  180,                                    ! Wind Direction {deg}
  0,                                      ! Sky Clearness
  0,                                      ! Rain Indicator
  0,                                      ! Snow Indicator
  21,                                     ! Day of Month
  7,                                      ! Month
  SummerDesignDay,                        ! Day Type
  0,                                      ! Daylight Saving Time Indicator
  Dewpoint,                               ! Humidity Indicating Type
  ,                                       ! Humidity Indicating Day Schedule Name
  DefaultMultipliers,                     ! Dry-Bulb Temperature Range Modifier Type
  ,                                       ! Dry-Bulb Temperature Range Modifier Schedule Name
  ASHRAETau,                              ! Solar Model Indicator
  ,                                       ! Beam Solar Day Schedule Name
  ,                                       ! Diffuse Solar Day Schedule Name
  0.421,                                  ! ASHRAE Taub {dimensionless}
  2.196;                                  ! ASHRAE Taud {dimensionless}

OS:ComponentData,
  {087bd9b4-ae79-4457-b52c-92a8b06142b5}, ! Handle
  Component Data 1,                       ! Name
  {9a3fded7-9dc9-4373-8cde-f7488bdcc307}, ! UUID
  {42bb369f-13f4-41a5-9f45-361775aa0e3a}, ! Version UUID
  1366309170,                             ! Creation Timestamp
  1366309170,                             ! Version Timestamp
  {b24f8d85-8cfd-4f9c-b771-a7bb0d9a5a71}; ! Name of Object 1

