
OS:Version,
  {64684656-1fe7-446f-9818-6226a89b0d6b}, ! Handle
  0.9.3;                                  ! Version Identifier

OS:SizingPeriod:DesignDay,
  {586d7c24-42bd-407e-967a-52345a65d1ac}, ! Handle
  Myrtle Beach Afb Ann Htg 99.6% Condns DB, ! Name
  -3.7,                                   ! Maximum Dry-Bulb Temperature {C}
  0,                                      ! Daily Dry-Bulb Temperature Range {deltaC}
  -3.7,                                   ! Humidity Indicating Conditions at Maximum Dry-Bulb {BasedOnField A3}
  101229,                                 ! Barometric Pressure {Pa}
  2.2,                                    ! Wind Speed {m/s}
  0,                                      ! Wind Direction {deg}
  0,                                      ! Sky Clearness
  0,                                      ! Rain Indicator
  0,                                      ! Snow Indicator
  21,                                     ! Day of Month
  1,                                      ! Month
  WinterDesignDay,                        ! Day Type
  0,                                      ! Daylight Saving Time Indicator
  Wetbulb,                                ! Humidity Indicating Type
  ,                                       ! Humidity Indicating Day Schedule Name
  DefaultMultipliers,                     ! Dry-Bulb Temperature Range Modifier Type
  ,                                       ! Dry-Bulb Temperature Range Modifier Schedule Name
  ASHRAEClearSky;                         ! Solar Model Indicator

OS:ComponentData,
  {1e34eae0-d325-4664-b1c8-5b73b321c3fc}, ! Handle
  Component Data 1,                       ! Name
  {f1949130-ccad-477d-98a4-340153ecbfa4}, ! UUID
  {fb44582f-951e-4021-b28e-67b683aa7381}, ! Version UUID
  1366310371,                             ! Creation Timestamp
  1366310371,                             ! Version Timestamp
  {586d7c24-42bd-407e-967a-52345a65d1ac}; ! Name of Object 1

