
OS:Version,
  {e548ff70-46b5-498f-8011-90fab5738033}, ! Handle
  0.9.3;                                  ! Version Identifier

OS:SizingPeriod:DesignDay,
  {12cf5dad-0f64-4216-b57e-69d9c9477b25}, ! Handle
  Mcallen Miller Intl Ap  Edinb Ann Clg 1% Condns DP=>MDB, ! Name
  27.9,                                   ! Maximum Dry-Bulb Temperature {C}
  11.1,                                   ! Daily Dry-Bulb Temperature Range {deltaC}
  25.3,                                   ! Humidity Indicating Conditions at Maximum Dry-Bulb {BasedOnField A3}
  100965,                                 ! Barometric Pressure {Pa}
  6.6,                                    ! Wind Speed {m/s}
  140,                                    ! Wind Direction {deg}
  0,                                      ! Sky Clearness
  0,                                      ! Rain Indicator
  0,                                      ! Snow Indicator
  21,                                     ! Day of Month
  8,                                      ! Month
  SummerDesignDay,                        ! Day Type
  0,                                      ! Daylight Saving Time Indicator
  Dewpoint,                               ! Humidity Indicating Type
  ,                                       ! Humidity Indicating Day Schedule Name
  DefaultMultipliers,                     ! Dry-Bulb Temperature Range Modifier Type
  ,                                       ! Dry-Bulb Temperature Range Modifier Schedule Name
  ASHRAETau,                              ! Solar Model Indicator
  ,                                       ! Beam Solar Day Schedule Name
  ,                                       ! Diffuse Solar Day Schedule Name
  0.461,                                  ! ASHRAE Taub {dimensionless}
  2.107;                                  ! ASHRAE Taud {dimensionless}

OS:ComponentData,
  {1dc7d28c-06c5-41ce-9823-4c153b98ef46}, ! Handle
  Component Data 1,                       ! Name
  {014fa694-a74a-4311-b155-7e9a7706d092}, ! UUID
  {ce2d4c16-baa6-4e16-a6bb-ef57e585f27e}, ! Version UUID
  1366310820,                             ! Creation Timestamp
  1366310820,                             ! Version Timestamp
  {12cf5dad-0f64-4216-b57e-69d9c9477b25}; ! Name of Object 1

