
OS:Version,
  {d3e0db81-47be-4a42-bab2-a2412ede8fb6}, ! Handle
  0.9.3;                                  ! Version Identifier

OS:SizingPeriod:DesignDay,
  {e576bec0-09df-4af9-9c48-a86410c9a657}, ! Handle
  Mitchell  Awos Ann Hum_n 99.6% Condns DP=>MCDB, ! Name
  -22.6,                                  ! Maximum Dry-Bulb Temperature {C}
  0,                                      ! Daily Dry-Bulb Temperature Range {deltaC}
  -29.5,                                  ! Humidity Indicating Conditions at Maximum Dry-Bulb {BasedOnField A3}
  96646,                                  ! Barometric Pressure {Pa}
  4.6,                                    ! Wind Speed {m/s}
  320,                                    ! Wind Direction {deg}
  0,                                      ! Sky Clearness
  0,                                      ! Rain Indicator
  0,                                      ! Snow Indicator
  21,                                     ! Day of Month
  1,                                      ! Month
  WinterDesignDay,                        ! Day Type
  0,                                      ! Daylight Saving Time Indicator
  Dewpoint,                               ! Humidity Indicating Type
  ,                                       ! Humidity Indicating Day Schedule Name
  DefaultMultipliers,                     ! Dry-Bulb Temperature Range Modifier Type
  ,                                       ! Dry-Bulb Temperature Range Modifier Schedule Name
  ASHRAEClearSky;                         ! Solar Model Indicator

OS:ComponentData,
  {6f174ec0-5a19-4312-a95d-b2d4571b0d63}, ! Handle
  Component Data 1,                       ! Name
  {0a343cb7-5ce3-4a7e-9881-deb2597ff2db}, ! UUID
  {33f257d7-635c-4b4a-96e3-827a2d3850b8}, ! Version UUID
  1366310412,                             ! Creation Timestamp
  1366310412,                             ! Version Timestamp
  {e576bec0-09df-4af9-9c48-a86410c9a657}; ! Name of Object 1

