
OS:Version,
  {6e90bc1b-b828-4594-8e28-aac700da99ae}, ! Handle
  0.9.3;                                  ! Version Identifier

OS:SizingPeriod:DesignDay,
  {73f738c4-2e92-4a37-b48a-bd34f771a4de}, ! Handle
  Valdez Wso Ann Clg .4% Condns Enth=>MDB, ! Name
  19.8,                                   ! Maximum Dry-Bulb Temperature {C}
  6.9,                                    ! Daily Dry-Bulb Temperature Range {deltaC}
  40700,                                  ! Humidity Indicating Conditions at Maximum Dry-Bulb {BasedOnField A3}
  101241,                                 ! Barometric Pressure {Pa}
  4.2,                                    ! Wind Speed {m/s}
  240,                                    ! Wind Direction {deg}
  0,                                      ! Sky Clearness
  0,                                      ! Rain Indicator
  0,                                      ! Snow Indicator
  21,                                     ! Day of Month
  7,                                      ! Month
  SummerDesignDay,                        ! Day Type
  0,                                      ! Daylight Saving Time Indicator
  Enthalpy,                               ! Humidity Indicating Type
  ,                                       ! Humidity Indicating Day Schedule Name
  DefaultMultipliers,                     ! Dry-Bulb Temperature Range Modifier Type
  ,                                       ! Dry-Bulb Temperature Range Modifier Schedule Name
  ASHRAETau,                              ! Solar Model Indicator
  ,                                       ! Beam Solar Day Schedule Name
  ,                                       ! Diffuse Solar Day Schedule Name
  0.407,                                  ! ASHRAE Taub {dimensionless}
  2.026;                                  ! ASHRAE Taud {dimensionless}

OS:ComponentData,
  {e356f3c8-fd0e-445d-8946-6cac846a9c78}, ! Handle
  Component Data 1,                       ! Name
  {d52aa639-c43e-461f-baf5-e68798353601}, ! UUID
  {cc0b9d89-77b5-4847-8f50-f2d5386895a3}, ! Version UUID
  1366305608,                             ! Creation Timestamp
  1366305608,                             ! Version Timestamp
  {73f738c4-2e92-4a37-b48a-bd34f771a4de}; ! Name of Object 1

