
OS:Version,
  {81fc23d3-97b5-41b3-bc9a-baf255d90739}, ! Handle
  0.9.3;                                  ! Version Identifier

OS:SizingPeriod:DesignDay,
  {8a9c2f84-ce73-4ef5-94fe-6ac2455b853b}, ! Handle
  Pellston Emmet County Ap Ann Clg 2% Condns DB=>MWB, ! Name
  27.4,                                   ! Maximum Dry-Bulb Temperature {C}
  13.1,                                   ! Daily Dry-Bulb Temperature Range {deltaC}
  19.9,                                   ! Humidity Indicating Conditions at Maximum Dry-Bulb {BasedOnField A3}
  98733,                                  ! Barometric Pressure {Pa}
  5.6,                                    ! Wind Speed {m/s}
  250,                                    ! Wind Direction {deg}
  0,                                      ! Sky Clearness
  0,                                      ! Rain Indicator
  0,                                      ! Snow Indicator
  21,                                     ! Day of Month
  7,                                      ! Month
  SummerDesignDay,                        ! Day Type
  0,                                      ! Daylight Saving Time Indicator
  Wetbulb,                                ! Humidity Indicating Type
  ,                                       ! Humidity Indicating Day Schedule Name
  DefaultMultipliers,                     ! Dry-Bulb Temperature Range Modifier Type
  ,                                       ! Dry-Bulb Temperature Range Modifier Schedule Name
  ASHRAETau,                              ! Solar Model Indicator
  ,                                       ! Beam Solar Day Schedule Name
  ,                                       ! Diffuse Solar Day Schedule Name
  0.414,                                  ! ASHRAE Taub {dimensionless}
  2.197;                                  ! ASHRAE Taud {dimensionless}

OS:ComponentData,
  {0fe5f375-b23a-42db-b435-883ac3c21a7f}, ! Handle
  Component Data 1,                       ! Name
  {0ef0861e-b19d-4739-9777-f9e7649367c8}, ! UUID
  {7a72708d-631a-491f-aca7-d6b9f6516b85}, ! Version UUID
  1366308088,                             ! Creation Timestamp
  1366308088,                             ! Version Timestamp
  {8a9c2f84-ce73-4ef5-94fe-6ac2455b853b}; ! Name of Object 1

