
OS:Version,
  {7bcbb34f-d969-4107-b7b7-cc651b537698}, ! Handle
  0.9.3;                                  ! Version Identifier

OS:SizingPeriod:DesignDay,
  {d32b1c3d-e390-404e-ab1c-c6f97e2c39c4}, ! Handle
  Willow Grove Nas Ann Clg 2% Condns DP=>MDB, ! Name
  27,                                     ! Maximum Dry-Bulb Temperature {C}
  10.5,                                   ! Daily Dry-Bulb Temperature Range {deltaC}
  22.2,                                   ! Humidity Indicating Conditions at Maximum Dry-Bulb {BasedOnField A3}
  100106,                                 ! Barometric Pressure {Pa}
  2.5,                                    ! Wind Speed {m/s}
  270,                                    ! Wind Direction {deg}
  0,                                      ! Sky Clearness
  0,                                      ! Rain Indicator
  0,                                      ! Snow Indicator
  21,                                     ! Day of Month
  7,                                      ! Month
  SummerDesignDay,                        ! Day Type
  0,                                      ! Daylight Saving Time Indicator
  Dewpoint,                               ! Humidity Indicating Type
  ,                                       ! Humidity Indicating Day Schedule Name
  DefaultMultipliers,                     ! Dry-Bulb Temperature Range Modifier Type
  ,                                       ! Dry-Bulb Temperature Range Modifier Schedule Name
  ASHRAETau,                              ! Solar Model Indicator
  ,                                       ! Beam Solar Day Schedule Name
  ,                                       ! Diffuse Solar Day Schedule Name
  0.524,                                  ! ASHRAE Taub {dimensionless}
  1.834;                                  ! ASHRAE Taud {dimensionless}

OS:ComponentData,
  {5b0e401a-a9e9-4e99-a7fd-0a5e2bc96874}, ! Handle
  Component Data 1,                       ! Name
  {b59cb1ef-81cb-41d1-b34b-320c99eb49fe}, ! UUID
  {f630fe2f-4e3b-4085-aafe-d68130169d49}, ! Version UUID
  1366310285,                             ! Creation Timestamp
  1366310285,                             ! Version Timestamp
  {d32b1c3d-e390-404e-ab1c-c6f97e2c39c4}; ! Name of Object 1

