
OS:Version,
  {707962ad-974b-4d0c-93b7-6bffb0322380}, ! Handle
  0.9.3;                                  ! Version Identifier

OS:SizingPeriod:DesignDay,
  {73081db5-2aa2-463d-9aa8-1986fe71ea3f}, ! Handle
  Sexton Summit Ann Htg Wind 99.6% Condns WS=>MCDB, ! Name
  3.3,                                    ! Maximum Dry-Bulb Temperature {C}
  0,                                      ! Daily Dry-Bulb Temperature Range {deltaC}
  3.3,                                    ! Humidity Indicating Conditions at Maximum Dry-Bulb {BasedOnField A3}
  88058,                                  ! Barometric Pressure {Pa}
  12.8,                                   ! Wind Speed {m/s}
  0,                                      ! Wind Direction {deg}
  0,                                      ! Sky Clearness
  0,                                      ! Rain Indicator
  0,                                      ! Snow Indicator
  21,                                     ! Day of Month
  12,                                     ! Month
  WinterDesignDay,                        ! Day Type
  0,                                      ! Daylight Saving Time Indicator
  Wetbulb,                                ! Humidity Indicating Type
  ,                                       ! Humidity Indicating Day Schedule Name
  DefaultMultipliers,                     ! Dry-Bulb Temperature Range Modifier Type
  ,                                       ! Dry-Bulb Temperature Range Modifier Schedule Name
  ASHRAEClearSky;                         ! Solar Model Indicator

OS:ComponentData,
  {fdc9b4fe-aca6-4788-9191-8ea936cdb5c6}, ! Handle
  Component Data 1,                       ! Name
  {e83ea3e6-c2ae-4758-b64d-7445d51ea8f4}, ! UUID
  {e0c2edae-707e-4bc2-ae24-7acff84bdf95}, ! Version UUID
  1366310121,                             ! Creation Timestamp
  1366310121,                             ! Version Timestamp
  {73081db5-2aa2-463d-9aa8-1986fe71ea3f}; ! Name of Object 1

