
OS:Version,
  {47bc0866-65cd-42ba-b779-4546f592596f}, ! Handle
  0.9.3;                                  ! Version Identifier

OS:SizingPeriod:DesignDay,
  {7162c2ee-8e56-42b9-b4da-6b0d4631f6cc}, ! Handle
  PHOENIX Ann Clg 2% Condns DP=>MDB,      ! Name
  30.2,                                   ! Maximum Dry-Bulb Temperature {C}
  12,                                     ! Daily Dry-Bulb Temperature Range {deltaC}
  20,                                     ! Humidity Indicating Conditions at Maximum Dry-Bulb {BasedOnField A3}
  97318,                                  ! Barometric Pressure {Pa}
  4.1,                                    ! Wind Speed {m/s}
  260,                                    ! Wind Direction {deg}
  0,                                      ! Sky Clearness
  0,                                      ! Rain Indicator
  0,                                      ! Snow Indicator
  21,                                     ! Day of Month
  7,                                      ! Month
  SummerDesignDay,                        ! Day Type
  0,                                      ! Daylight Saving Time Indicator
  Dewpoint,                               ! Humidity Indicating Type
  ,                                       ! Humidity Indicating Day Schedule Name
  DefaultMultipliers,                     ! Dry-Bulb Temperature Range Modifier Type
  ,                                       ! Dry-Bulb Temperature Range Modifier Schedule Name
  ASHRAETau,                              ! Solar Model Indicator
  ,                                       ! Beam Solar Day Schedule Name
  ,                                       ! Diffuse Solar Day Schedule Name
  0.588,                                  ! ASHRAE Taub {dimensionless}
  1.653;                                  ! ASHRAE Taud {dimensionless}

OS:ComponentData,
  {fab56db0-546e-4b20-9b36-a8a21f6c4301}, ! Handle
  Component Data 1,                       ! Name
  {83bd98b2-1821-4dfb-97b0-87afdfa4a16e}, ! UUID
  {ca7877a3-3b3d-4c1b-82cf-4e97e4bdb336}, ! Version UUID
  1366306298,                             ! Creation Timestamp
  1366306298,                             ! Version Timestamp
  {7162c2ee-8e56-42b9-b4da-6b0d4631f6cc}; ! Name of Object 1

