
OS:Version,
  {97499ea4-773b-438f-9824-c8fd61f1b08f}, ! Handle
  0.9.3;                                  ! Version Identifier

OS:SizingPeriod:DesignDay,
  {863e92f5-b76e-4ae9-9cc3-136b85d9bc38}, ! Handle
  Webster City Ann Hum_n 99.6% Condns DP=>MCDB, ! Name
  -20.7,                                  ! Maximum Dry-Bulb Temperature {C}
  0,                                      ! Daily Dry-Bulb Temperature Range {deltaC}
  -25.2,                                  ! Humidity Indicating Conditions at Maximum Dry-Bulb {BasedOnField A3}
  97283,                                  ! Barometric Pressure {Pa}
  3.7,                                    ! Wind Speed {m/s}
  0,                                      ! Wind Direction {deg}
  0,                                      ! Sky Clearness
  0,                                      ! Rain Indicator
  0,                                      ! Snow Indicator
  21,                                     ! Day of Month
  1,                                      ! Month
  WinterDesignDay,                        ! Day Type
  0,                                      ! Daylight Saving Time Indicator
  Dewpoint,                               ! Humidity Indicating Type
  ,                                       ! Humidity Indicating Day Schedule Name
  DefaultMultipliers,                     ! Dry-Bulb Temperature Range Modifier Type
  ,                                       ! Dry-Bulb Temperature Range Modifier Schedule Name
  ASHRAEClearSky;                         ! Solar Model Indicator

OS:ComponentData,
  {ccbae3fe-19c3-43fe-8fc2-edc11bebe46f}, ! Handle
  Component Data 1,                       ! Name
  {4ee491cb-ed8b-487b-a4b7-0429db908e86}, ! UUID
  {589a0680-cd47-438c-b3a0-994aef8435b0}, ! Version UUID
  1366307258,                             ! Creation Timestamp
  1366307258,                             ! Version Timestamp
  {863e92f5-b76e-4ae9-9cc3-136b85d9bc38}; ! Name of Object 1

