
OS:Version,
  {3367d2a2-8dfb-4577-8eab-6c744eeae1b0}, ! Handle
  0.9.3;                                  ! Version Identifier

OS:SizingPeriod:DesignDay,
  {6f438111-7d02-446a-a091-1ef561b5d882}, ! Handle
  Seattle-Tacoma/Int'l A Ann Clg .4% Condns DP=>MDB, ! Name
  20.8,                                   ! Maximum Dry-Bulb Temperature {C}
  10.4,                                   ! Daily Dry-Bulb Temperature Range {deltaC}
  15.9,                                   ! Humidity Indicating Conditions at Maximum Dry-Bulb {BasedOnField A3}
  99690,                                  ! Barometric Pressure {Pa}
  4.2,                                    ! Wind Speed {m/s}
  350,                                    ! Wind Direction {deg}
  0,                                      ! Sky Clearness
  0,                                      ! Rain Indicator
  0,                                      ! Snow Indicator
  21,                                     ! Day of Month
  8,                                      ! Month
  SummerDesignDay,                        ! Day Type
  0,                                      ! Daylight Saving Time Indicator
  Dewpoint,                               ! Humidity Indicating Type
  ,                                       ! Humidity Indicating Day Schedule Name
  DefaultMultipliers,                     ! Dry-Bulb Temperature Range Modifier Type
  ,                                       ! Dry-Bulb Temperature Range Modifier Schedule Name
  ASHRAETau,                              ! Solar Model Indicator
  ,                                       ! Beam Solar Day Schedule Name
  ,                                       ! Diffuse Solar Day Schedule Name
  0.352,                                  ! ASHRAE Taub {dimensionless}
  2.561;                                  ! ASHRAE Taud {dimensionless}

OS:ComponentData,
  {d6bef121-a3ef-48e0-a661-2762a6c52d7f}, ! Handle
  Component Data 1,                       ! Name
  {2ef4aa78-44d9-42d0-95ab-dfaca8a09e22}, ! UUID
  {5aee1c97-d875-40aa-a41e-e3955f8f7717}, ! Version UUID
  1366311359,                             ! Creation Timestamp
  1366311359,                             ! Version Timestamp
  {6f438111-7d02-446a-a091-1ef561b5d882}; ! Name of Object 1

