
OS:Version,
  {fd441c06-6174-4c4a-a54d-37905b8fed0c}, ! Handle
  0.9.3;                                  ! Version Identifier

OS:SizingPeriod:DesignDay,
  {3b9b9146-a7b0-4644-a042-1d3890558ac6}, ! Handle
  Stampede Pass Ann Clg 2% Condns WB=>MDB, ! Name
  20.4,                                   ! Maximum Dry-Bulb Temperature {C}
  9,                                      ! Daily Dry-Bulb Temperature Range {deltaC}
  14,                                     ! Humidity Indicating Conditions at Maximum Dry-Bulb {BasedOnField A3}
  87651,                                  ! Barometric Pressure {Pa}
  3.1,                                    ! Wind Speed {m/s}
  240,                                    ! Wind Direction {deg}
  0,                                      ! Sky Clearness
  0,                                      ! Rain Indicator
  0,                                      ! Snow Indicator
  21,                                     ! Day of Month
  8,                                      ! Month
  SummerDesignDay,                        ! Day Type
  0,                                      ! Daylight Saving Time Indicator
  Wetbulb,                                ! Humidity Indicating Type
  ,                                       ! Humidity Indicating Day Schedule Name
  DefaultMultipliers,                     ! Dry-Bulb Temperature Range Modifier Type
  ,                                       ! Dry-Bulb Temperature Range Modifier Schedule Name
  ASHRAETau,                              ! Solar Model Indicator
  ,                                       ! Beam Solar Day Schedule Name
  ,                                       ! Diffuse Solar Day Schedule Name
  0.327,                                  ! ASHRAE Taub {dimensionless}
  2.585;                                  ! ASHRAE Taud {dimensionless}

OS:ComponentData,
  {0f064188-ab1e-4eb4-bec1-ea74fdc99fa9}, ! Handle
  Component Data 1,                       ! Name
  {a2bb643f-a961-4cfb-89ac-15da30c70fe0}, ! UUID
  {89aed2f8-f462-49a7-91ff-121ebdd5d106}, ! Version UUID
  1366311401,                             ! Creation Timestamp
  1366311401,                             ! Version Timestamp
  {3b9b9146-a7b0-4644-a042-1d3890558ac6}; ! Name of Object 1

