
OS:Version,
  {a2860df5-d04a-4c91-b564-b46cd7f09940}, ! Handle
  0.9.3;                                  ! Version Identifier

OS:SizingPeriod:DesignDay,
  {da3298dd-2162-41ca-9374-7a49745455f4}, ! Handle
  Memphis Ann Clg 2% Condns DB=>MWB,      ! Name
  33.4,                                   ! Maximum Dry-Bulb Temperature {C}
  9.2,                                    ! Daily Dry-Bulb Temperature Range {deltaC}
  24.7,                                   ! Humidity Indicating Conditions at Maximum Dry-Bulb {BasedOnField A3}
  100284,                                 ! Barometric Pressure {Pa}
  3.8,                                    ! Wind Speed {m/s}
  240,                                    ! Wind Direction {deg}
  0,                                      ! Sky Clearness
  0,                                      ! Rain Indicator
  0,                                      ! Snow Indicator
  21,                                     ! Day of Month
  7,                                      ! Month
  SummerDesignDay,                        ! Day Type
  0,                                      ! Daylight Saving Time Indicator
  Wetbulb,                                ! Humidity Indicating Type
  ,                                       ! Humidity Indicating Day Schedule Name
  DefaultMultipliers,                     ! Dry-Bulb Temperature Range Modifier Type
  ,                                       ! Dry-Bulb Temperature Range Modifier Schedule Name
  ASHRAETau,                              ! Solar Model Indicator
  ,                                       ! Beam Solar Day Schedule Name
  ,                                       ! Diffuse Solar Day Schedule Name
  0.512,                                  ! ASHRAE Taub {dimensionless}
  1.892;                                  ! ASHRAE Taud {dimensionless}

OS:ComponentData,
  {aabe708a-3be8-478c-a4a2-39b7a5f20398}, ! Handle
  Component Data 1,                       ! Name
  {01d09bfe-854b-4edb-80c6-429375d8c0e2}, ! UUID
  {3595284f-21ea-46a5-a851-f0cf7852dacd}, ! Version UUID
  1366310525,                             ! Creation Timestamp
  1366310525,                             ! Version Timestamp
  {da3298dd-2162-41ca-9374-7a49745455f4}; ! Name of Object 1

