
OS:Version,
  {b51604ce-6c4d-48c2-b87a-e296bbb45f2a}, ! Handle
  0.9.3;                                  ! Version Identifier

OS:SizingPeriod:DesignDay,
  {9caec9a6-440d-43f2-be4a-89778925e152}, ! Handle
  Point Mugu Nf Ann Htg 99% Condns DB,    ! Name
  5.1,                                    ! Maximum Dry-Bulb Temperature {C}
  0,                                      ! Daily Dry-Bulb Temperature Range {deltaC}
  5.1,                                    ! Humidity Indicating Conditions at Maximum Dry-Bulb {BasedOnField A3}
  101289,                                 ! Barometric Pressure {Pa}
  2.1,                                    ! Wind Speed {m/s}
  20,                                     ! Wind Direction {deg}
  0,                                      ! Sky Clearness
  0,                                      ! Rain Indicator
  0,                                      ! Snow Indicator
  21,                                     ! Day of Month
  12,                                     ! Month
  WinterDesignDay,                        ! Day Type
  0,                                      ! Daylight Saving Time Indicator
  Wetbulb,                                ! Humidity Indicating Type
  ,                                       ! Humidity Indicating Day Schedule Name
  DefaultMultipliers,                     ! Dry-Bulb Temperature Range Modifier Type
  ,                                       ! Dry-Bulb Temperature Range Modifier Schedule Name
  ASHRAEClearSky;                         ! Solar Model Indicator

OS:ComponentData,
  {2826e682-d50a-4b28-8954-1b59ef3ddcd3}, ! Handle
  Component Data 1,                       ! Name
  {f01371a8-d59e-44b6-9b7d-bdf282df0852}, ! UUID
  {8cee4409-aa9d-402f-a62a-4be3810b7efb}, ! Version UUID
  1366306538,                             ! Creation Timestamp
  1366306538,                             ! Version Timestamp
  {9caec9a6-440d-43f2-be4a-89778925e152}; ! Name of Object 1

