
OS:Version,
  {f2b9ff03-3f41-4ec7-bc61-18e287a51473}, ! Handle
  0.9.3;                                  ! Version Identifier

OS:SizingPeriod:DesignDay,
  {988213b2-9fce-404b-9c3d-36ce3bf5dc2b}, ! Handle
  North Platte Ann Clg 1% Condns DB=>MWB, ! Name
  33.8,                                   ! Maximum Dry-Bulb Temperature {C}
  14.5,                                   ! Daily Dry-Bulb Temperature Range {deltaC}
  21.1,                                   ! Humidity Indicating Conditions at Maximum Dry-Bulb {BasedOnField A3}
  91533,                                  ! Barometric Pressure {Pa}
  5.5,                                    ! Wind Speed {m/s}
  180,                                    ! Wind Direction {deg}
  0,                                      ! Sky Clearness
  0,                                      ! Rain Indicator
  0,                                      ! Snow Indicator
  21,                                     ! Day of Month
  7,                                      ! Month
  SummerDesignDay,                        ! Day Type
  0,                                      ! Daylight Saving Time Indicator
  Wetbulb,                                ! Humidity Indicating Type
  ,                                       ! Humidity Indicating Day Schedule Name
  DefaultMultipliers,                     ! Dry-Bulb Temperature Range Modifier Type
  ,                                       ! Dry-Bulb Temperature Range Modifier Schedule Name
  ASHRAETau,                              ! Solar Model Indicator
  ,                                       ! Beam Solar Day Schedule Name
  ,                                       ! Diffuse Solar Day Schedule Name
  0.417,                                  ! ASHRAE Taub {dimensionless}
  2.141;                                  ! ASHRAE Taud {dimensionless}

OS:ComponentData,
  {fe7d9f3a-e88c-4076-a1ef-48eefb525d0f}, ! Handle
  Component Data 1,                       ! Name
  {a29c04fd-1fe1-4cb0-a3f1-ea7e93fc22d7}, ! UUID
  {8f759201-6190-4a6b-a5d6-6c46435c8bd0}, ! Version UUID
  1366309161,                             ! Creation Timestamp
  1366309161,                             ! Version Timestamp
  {988213b2-9fce-404b-9c3d-36ce3bf5dc2b}; ! Name of Object 1

