
OS:Version,
  {8aadfeef-9327-4e50-a401-e9f990e98156}, ! Handle
  0.9.3;                                  ! Version Identifier

OS:SizingPeriod:DesignDay,
  {65ee30f6-4355-414f-b621-4d5c388f2cfa}, ! Handle
  Minneapolis-St Paul Ann Clg 1% Condns DP=>MDB, ! Name
  27.4,                                   ! Maximum Dry-Bulb Temperature {C}
  9.9,                                    ! Daily Dry-Bulb Temperature Range {deltaC}
  22.1,                                   ! Humidity Indicating Conditions at Maximum Dry-Bulb {BasedOnField A3}
  98299,                                  ! Barometric Pressure {Pa}
  6,                                      ! Wind Speed {m/s}
  180,                                    ! Wind Direction {deg}
  0,                                      ! Sky Clearness
  0,                                      ! Rain Indicator
  0,                                      ! Snow Indicator
  21,                                     ! Day of Month
  7,                                      ! Month
  SummerDesignDay,                        ! Day Type
  0,                                      ! Daylight Saving Time Indicator
  Dewpoint,                               ! Humidity Indicating Type
  ,                                       ! Humidity Indicating Day Schedule Name
  DefaultMultipliers,                     ! Dry-Bulb Temperature Range Modifier Type
  ,                                       ! Dry-Bulb Temperature Range Modifier Schedule Name
  ASHRAETau,                              ! Solar Model Indicator
  ,                                       ! Beam Solar Day Schedule Name
  ,                                       ! Diffuse Solar Day Schedule Name
  0.416,                                  ! ASHRAE Taub {dimensionless}
  2.18;                                   ! ASHRAE Taud {dimensionless}

OS:ComponentData,
  {cece4df2-231b-47c2-8711-3902f2fc9f91}, ! Handle
  Component Data 1,                       ! Name
  {7b1d7f58-acef-42c9-bc33-8a4e392ed9ca}, ! UUID
  {af2930a9-9c80-4c0f-8355-1d196f0dde5d}, ! Version UUID
  1366308319,                             ! Creation Timestamp
  1366308319,                             ! Version Timestamp
  {65ee30f6-4355-414f-b621-4d5c388f2cfa}; ! Name of Object 1

