
OS:Version,
  {184fca0c-e98c-48eb-b3a8-94d94e80ab7e}, ! Handle
  0.9.3;                                  ! Version Identifier

OS:SizingPeriod:DesignDay,
  {4b410acb-9839-4d18-8d89-ae5553349be9}, ! Handle
  Mcconnell Afb Ann Clg 2% Condns Enth=>MDB, ! Name
  31,                                     ! Maximum Dry-Bulb Temperature {C}
  11.9,                                   ! Daily Dry-Bulb Temperature Range {deltaC}
  74300,                                  ! Humidity Indicating Conditions at Maximum Dry-Bulb {BasedOnField A3}
  96449,                                  ! Barometric Pressure {Pa}
  5.6,                                    ! Wind Speed {m/s}
  190,                                    ! Wind Direction {deg}
  0,                                      ! Sky Clearness
  0,                                      ! Rain Indicator
  0,                                      ! Snow Indicator
  21,                                     ! Day of Month
  7,                                      ! Month
  SummerDesignDay,                        ! Day Type
  0,                                      ! Daylight Saving Time Indicator
  Enthalpy,                               ! Humidity Indicating Type
  ,                                       ! Humidity Indicating Day Schedule Name
  DefaultMultipliers,                     ! Dry-Bulb Temperature Range Modifier Type
  ,                                       ! Dry-Bulb Temperature Range Modifier Schedule Name
  ASHRAETau,                              ! Solar Model Indicator
  ,                                       ! Beam Solar Day Schedule Name
  ,                                       ! Diffuse Solar Day Schedule Name
  0.419,                                  ! ASHRAE Taub {dimensionless}
  2.206;                                  ! ASHRAE Taud {dimensionless}

OS:ComponentData,
  {f244fcc7-186c-4bcc-b9f9-7ae8f11b9e2f}, ! Handle
  Component Data 1,                       ! Name
  {a4297492-e564-48a8-a6f5-bf4c6ace4b26}, ! UUID
  {99e97457-ee4c-43ea-82f0-b0ef42c6e58e}, ! Version UUID
  1366307600,                             ! Creation Timestamp
  1366307600,                             ! Version Timestamp
  {4b410acb-9839-4d18-8d89-ae5553349be9}; ! Name of Object 1

