
OS:Version,
  {112a3c5e-c17c-4b30-938e-6e301c28f1f2}, ! Handle
  0.9.3;                                  ! Version Identifier

OS:SizingPeriod:DesignDay,
  {cf175193-e3bf-4d0d-a704-2fff19bdf4e9}, ! Handle
  Wilkes Barre Scranton Intl Ap Ann Clg .4% Condns WB=>MDB, ! Name
  28.9,                                   ! Maximum Dry-Bulb Temperature {C}
  10.8,                                   ! Daily Dry-Bulb Temperature Range {deltaC}
  23.9,                                   ! Humidity Indicating Conditions at Maximum Dry-Bulb {BasedOnField A3}
  97959,                                  ! Barometric Pressure {Pa}
  4.5,                                    ! Wind Speed {m/s}
  240,                                    ! Wind Direction {deg}
  0,                                      ! Sky Clearness
  0,                                      ! Rain Indicator
  0,                                      ! Snow Indicator
  21,                                     ! Day of Month
  7,                                      ! Month
  SummerDesignDay,                        ! Day Type
  0,                                      ! Daylight Saving Time Indicator
  Wetbulb,                                ! Humidity Indicating Type
  ,                                       ! Humidity Indicating Day Schedule Name
  DefaultMultipliers,                     ! Dry-Bulb Temperature Range Modifier Type
  ,                                       ! Dry-Bulb Temperature Range Modifier Schedule Name
  ASHRAETau,                              ! Solar Model Indicator
  ,                                       ! Beam Solar Day Schedule Name
  ,                                       ! Diffuse Solar Day Schedule Name
  0.477,                                  ! ASHRAE Taub {dimensionless}
  1.945;                                  ! ASHRAE Taud {dimensionless}

OS:ComponentData,
  {9109038d-98eb-4bdf-b9ca-86e20f765a63}, ! Handle
  Component Data 1,                       ! Name
  {5888c58d-4829-4fb8-8a4b-3a875b8de00b}, ! UUID
  {20247409-2e90-4895-9d39-aa146e01f25a}, ! Version UUID
  1366310266,                             ! Creation Timestamp
  1366310266,                             ! Version Timestamp
  {cf175193-e3bf-4d0d-a704-2fff19bdf4e9}; ! Name of Object 1

