
OS:Version,
  {fe87ec7c-be2b-4bbc-81c1-16b57e29f989}, ! Handle
  0.9.3;                                  ! Version Identifier

OS:SizingPeriod:DesignDay,
  {b71483d3-e3db-48cb-a89c-5773234d4537}, ! Handle
  Paducah Barkley Regional Ap Ann Clg 1% Condns DB=>MWB, ! Name
  33.5,                                   ! Maximum Dry-Bulb Temperature {C}
  10.8,                                   ! Daily Dry-Bulb Temperature Range {deltaC}
  24.6,                                   ! Humidity Indicating Conditions at Maximum Dry-Bulb {BasedOnField A3}
  99844,                                  ! Barometric Pressure {Pa}
  3.6,                                    ! Wind Speed {m/s}
  180,                                    ! Wind Direction {deg}
  0,                                      ! Sky Clearness
  0,                                      ! Rain Indicator
  0,                                      ! Snow Indicator
  21,                                     ! Day of Month
  7,                                      ! Month
  SummerDesignDay,                        ! Day Type
  0,                                      ! Daylight Saving Time Indicator
  Wetbulb,                                ! Humidity Indicating Type
  ,                                       ! Humidity Indicating Day Schedule Name
  DefaultMultipliers,                     ! Dry-Bulb Temperature Range Modifier Type
  ,                                       ! Dry-Bulb Temperature Range Modifier Schedule Name
  ASHRAETau,                              ! Solar Model Indicator
  ,                                       ! Beam Solar Day Schedule Name
  ,                                       ! Diffuse Solar Day Schedule Name
  0.495,                                  ! ASHRAE Taub {dimensionless}
  1.94;                                   ! ASHRAE Taud {dimensionless}

OS:ComponentData,
  {aab2c2b2-fa2a-40e6-9b70-3dfca897b963}, ! Handle
  Component Data 1,                       ! Name
  {94dad826-bcf7-4121-9871-1af10ac5de01}, ! UUID
  {a9bca372-2edd-40f2-ac20-05811af1ba59}, ! Version UUID
  1366307679,                             ! Creation Timestamp
  1366307679,                             ! Version Timestamp
  {b71483d3-e3db-48cb-a89c-5773234d4537}; ! Name of Object 1

