
OS:Version,
  {77439b84-11d7-480d-98fe-fb1eac5e2647}, ! Handle
  0.9.3;                                  ! Version Identifier

OS:SizingPeriod:DesignDay,
  {b312a1bc-c8fd-436b-b456-6d36926138c4}, ! Handle
  Silver Bay Ann Clg 2% Condns DB=>MWB,   ! Name
  25.9,                                   ! Maximum Dry-Bulb Temperature {C}
  13,                                     ! Daily Dry-Bulb Temperature Range {deltaC}
  18,                                     ! Humidity Indicating Conditions at Maximum Dry-Bulb {BasedOnField A3}
  97411,                                  ! Barometric Pressure {Pa}
  3.2,                                    ! Wind Speed {m/s}
  200,                                    ! Wind Direction {deg}
  0,                                      ! Sky Clearness
  0,                                      ! Rain Indicator
  0,                                      ! Snow Indicator
  21,                                     ! Day of Month
  7,                                      ! Month
  SummerDesignDay,                        ! Day Type
  0,                                      ! Daylight Saving Time Indicator
  Wetbulb,                                ! Humidity Indicating Type
  ,                                       ! Humidity Indicating Day Schedule Name
  DefaultMultipliers,                     ! Dry-Bulb Temperature Range Modifier Type
  ,                                       ! Dry-Bulb Temperature Range Modifier Schedule Name
  ASHRAETau,                              ! Solar Model Indicator
  ,                                       ! Beam Solar Day Schedule Name
  ,                                       ! Diffuse Solar Day Schedule Name
  0.412,                                  ! ASHRAE Taub {dimensionless}
  2.174;                                  ! ASHRAE Taud {dimensionless}

