
OS:Version,
  {a52d0329-eeee-4327-9417-62bfe6ea66a6}, ! Handle
  0.9.3;                                  ! Version Identifier

OS:SizingPeriod:DesignDay,
  {be31449b-882b-4713-b2b4-1f946e42cf7a}, ! Handle
  Yakutat State Arpt Ann Clg .4% Condns Enth=>MDB, ! Name
  17.7,                                   ! Maximum Dry-Bulb Temperature {C}
  5.8,                                    ! Daily Dry-Bulb Temperature Range {deltaC}
  40800,                                  ! Humidity Indicating Conditions at Maximum Dry-Bulb {BasedOnField A3}
  101229,                                 ! Barometric Pressure {Pa}
  3.4,                                    ! Wind Speed {m/s}
  320,                                    ! Wind Direction {deg}
  0,                                      ! Sky Clearness
  0,                                      ! Rain Indicator
  0,                                      ! Snow Indicator
  21,                                     ! Day of Month
  7,                                      ! Month
  SummerDesignDay,                        ! Day Type
  0,                                      ! Daylight Saving Time Indicator
  Enthalpy,                               ! Humidity Indicating Type
  ,                                       ! Humidity Indicating Day Schedule Name
  DefaultMultipliers,                     ! Dry-Bulb Temperature Range Modifier Type
  ,                                       ! Dry-Bulb Temperature Range Modifier Schedule Name
  ASHRAETau,                              ! Solar Model Indicator
  ,                                       ! Beam Solar Day Schedule Name
  ,                                       ! Diffuse Solar Day Schedule Name
  0.371,                                  ! ASHRAE Taub {dimensionless}
  2.194;                                  ! ASHRAE Taud {dimensionless}

OS:ComponentData,
  {4a3c0ab0-5383-49f8-8a54-2bca277d625e}, ! Handle
  Component Data 1,                       ! Name
  {2b140f21-6f5b-487e-a355-30c920e92cc4}, ! UUID
  {2b9de9d9-d138-41c4-8319-54b9d0eee65b}, ! Version UUID
  1366305631,                             ! Creation Timestamp
  1366305631,                             ! Version Timestamp
  {be31449b-882b-4713-b2b4-1f946e42cf7a}; ! Name of Object 1

