
OS:Version,
  {1abaf698-3efa-4665-a4c1-142a82237535}, ! Handle
  0.9.3;                                  ! Version Identifier

OS:SizingPeriod:DesignDay,
  {1b5573b2-ad36-433f-b357-fbe21cd7dcc5}, ! Handle
  Pueblo Ann Clg 1% Condns WB=>MDB,       ! Name
  29.2,                                   ! Maximum Dry-Bulb Temperature {C}
  18,                                     ! Daily Dry-Bulb Temperature Range {deltaC}
  19,                                     ! Humidity Indicating Conditions at Maximum Dry-Bulb {BasedOnField A3}
  85191,                                  ! Barometric Pressure {Pa}
  5.1,                                    ! Wind Speed {m/s}
  120,                                    ! Wind Direction {deg}
  0,                                      ! Sky Clearness
  0,                                      ! Rain Indicator
  0,                                      ! Snow Indicator
  21,                                     ! Day of Month
  7,                                      ! Month
  SummerDesignDay,                        ! Day Type
  0,                                      ! Daylight Saving Time Indicator
  Wetbulb,                                ! Humidity Indicating Type
  ,                                       ! Humidity Indicating Day Schedule Name
  DefaultMultipliers,                     ! Dry-Bulb Temperature Range Modifier Type
  ,                                       ! Dry-Bulb Temperature Range Modifier Schedule Name
  ASHRAETau,                              ! Solar Model Indicator
  ,                                       ! Beam Solar Day Schedule Name
  ,                                       ! Diffuse Solar Day Schedule Name
  0.435,                                  ! ASHRAE Taub {dimensionless}
  1.969;                                  ! ASHRAE Taud {dimensionless}

OS:ComponentData,
  {19f29572-d4b7-46fe-b6ef-ef0e9289bdaf}, ! Handle
  Component Data 1,                       ! Name
  {7efa206e-d3c0-48e4-852c-1094d1c8f32d}, ! UUID
  {141300ee-ebaf-4ded-a1bb-8edda8389388}, ! Version UUID
  1366306729,                             ! Creation Timestamp
  1366306729,                             ! Version Timestamp
  {1b5573b2-ad36-433f-b357-fbe21cd7dcc5}; ! Name of Object 1

