
OS:Version,
  {23492a6b-8b13-409a-af14-ffce55663b54}, ! Handle
  0.9.3;                                  ! Version Identifier

OS:SizingPeriod:DesignDay,
  {e6527e24-99b1-4300-a324-d2c31732cc07}, ! Handle
  Newark International Arpt Ann Htg Wind 99% Condns WS=>MCDB, ! Name
  -0.6,                                   ! Maximum Dry-Bulb Temperature {C}
  0,                                      ! Daily Dry-Bulb Temperature Range {deltaC}
  -0.6,                                   ! Humidity Indicating Conditions at Maximum Dry-Bulb {BasedOnField A3}
  101289,                                 ! Barometric Pressure {Pa}
  11.7,                                   ! Wind Speed {m/s}
  320,                                    ! Wind Direction {deg}
  0,                                      ! Sky Clearness
  0,                                      ! Rain Indicator
  0,                                      ! Snow Indicator
  21,                                     ! Day of Month
  1,                                      ! Month
  WinterDesignDay,                        ! Day Type
  0,                                      ! Daylight Saving Time Indicator
  Wetbulb,                                ! Humidity Indicating Type
  ,                                       ! Humidity Indicating Day Schedule Name
  DefaultMultipliers,                     ! Dry-Bulb Temperature Range Modifier Type
  ,                                       ! Dry-Bulb Temperature Range Modifier Schedule Name
  ASHRAEClearSky;                         ! Solar Model Indicator

OS:ComponentData,
  {17e40d6d-7b8d-4423-8bd6-6393aacbd072}, ! Handle
  Component Data 1,                       ! Name
  {8b6fb262-2c0a-4f26-8cd9-d991a563a4f8}, ! UUID
  {377546fc-328a-4f94-9e76-192f230e1391}, ! Version UUID
  1366309338,                             ! Creation Timestamp
  1366309338,                             ! Version Timestamp
  {e6527e24-99b1-4300-a324-d2c31732cc07}; ! Name of Object 1

