
OS:Version,
  {e4c4bf41-6144-4f8a-97fa-ae0bc8c72cef}, ! Handle
  0.9.3;                                  ! Version Identifier

OS:SizingPeriod:DesignDay,
  {4e8e2f8e-ae7c-401f-a837-4ee434fdd5e0}, ! Handle
  Middletown Harrisburg Intl Ap Ann Clg 1% Condns DB=>MWB, ! Name
  32.1,                                   ! Maximum Dry-Bulb Temperature {C}
  9.6,                                    ! Daily Dry-Bulb Temperature Range {deltaC}
  23.3,                                   ! Humidity Indicating Conditions at Maximum Dry-Bulb {BasedOnField A3}
  100225,                                 ! Barometric Pressure {Pa}
  4.4,                                    ! Wind Speed {m/s}
  300,                                    ! Wind Direction {deg}
  0,                                      ! Sky Clearness
  0,                                      ! Rain Indicator
  0,                                      ! Snow Indicator
  21,                                     ! Day of Month
  7,                                      ! Month
  SummerDesignDay,                        ! Day Type
  0,                                      ! Daylight Saving Time Indicator
  Wetbulb,                                ! Humidity Indicating Type
  ,                                       ! Humidity Indicating Day Schedule Name
  DefaultMultipliers,                     ! Dry-Bulb Temperature Range Modifier Type
  ,                                       ! Dry-Bulb Temperature Range Modifier Schedule Name
  ASHRAETau,                              ! Solar Model Indicator
  ,                                       ! Beam Solar Day Schedule Name
  ,                                       ! Diffuse Solar Day Schedule Name
  0.521,                                  ! ASHRAE Taub {dimensionless}
  1.834;                                  ! ASHRAE Taud {dimensionless}

OS:ComponentData,
  {2752538f-4970-4874-bc00-224ad5da58c4}, ! Handle
  Component Data 1,                       ! Name
  {68856d50-d315-47b0-98ea-e0b2f64383b4}, ! UUID
  {b9954af9-8bd7-408a-98ed-4ea4548a6d0c}, ! Version UUID
  1366310197,                             ! Creation Timestamp
  1366310197,                             ! Version Timestamp
  {4e8e2f8e-ae7c-401f-a837-4ee434fdd5e0}; ! Name of Object 1

