
OS:Version,
  {5c9d8ac8-dbce-46b3-a149-d6d2174e79c3}, ! Handle
  0.9.3;                                  ! Version Identifier

OS:SizingPeriod:DesignDay,
  {095d31a5-889c-4d0b-b2fe-d169416d45ad}, ! Handle
  Winston Salem Reynolds Ap Ann Clg .4% Condns DP=>MDB, ! Name
  27.3,                                   ! Maximum Dry-Bulb Temperature {C}
  9.6,                                    ! Daily Dry-Bulb Temperature Range {deltaC}
  23.3,                                   ! Humidity Indicating Conditions at Maximum Dry-Bulb {BasedOnField A3}
  97819,                                  ! Barometric Pressure {Pa}
  3.3,                                    ! Wind Speed {m/s}
  240,                                    ! Wind Direction {deg}
  0,                                      ! Sky Clearness
  0,                                      ! Rain Indicator
  0,                                      ! Snow Indicator
  21,                                     ! Day of Month
  7,                                      ! Month
  SummerDesignDay,                        ! Day Type
  0,                                      ! Daylight Saving Time Indicator
  Dewpoint,                               ! Humidity Indicating Type
  ,                                       ! Humidity Indicating Day Schedule Name
  DefaultMultipliers,                     ! Dry-Bulb Temperature Range Modifier Type
  ,                                       ! Dry-Bulb Temperature Range Modifier Schedule Name
  ASHRAETau,                              ! Solar Model Indicator
  ,                                       ! Beam Solar Day Schedule Name
  ,                                       ! Diffuse Solar Day Schedule Name
  0.557,                                  ! ASHRAE Taub {dimensionless}
  1.754;                                  ! ASHRAE Taud {dimensionless}

