
OS:Version,
  {c82f12be-f2b1-4120-aad8-4f922ca78974}, ! Handle
  0.9.3;                                  ! Version Identifier

OS:SizingPeriod:DesignDay,
  {1700c9e7-a496-45a9-b062-5e30592e8b0d}, ! Handle
  PHOENIX Ann Clg 2% Condns DB=>MWB,      ! Name
  41.2,                                   ! Maximum Dry-Bulb Temperature {C}
  12,                                     ! Daily Dry-Bulb Temperature Range {deltaC}
  20.9,                                   ! Humidity Indicating Conditions at Maximum Dry-Bulb {BasedOnField A3}
  97318,                                  ! Barometric Pressure {Pa}
  4.1,                                    ! Wind Speed {m/s}
  260,                                    ! Wind Direction {deg}
  0,                                      ! Sky Clearness
  0,                                      ! Rain Indicator
  0,                                      ! Snow Indicator
  21,                                     ! Day of Month
  7,                                      ! Month
  SummerDesignDay,                        ! Day Type
  0,                                      ! Daylight Saving Time Indicator
  Wetbulb,                                ! Humidity Indicating Type
  ,                                       ! Humidity Indicating Day Schedule Name
  DefaultMultipliers,                     ! Dry-Bulb Temperature Range Modifier Type
  ,                                       ! Dry-Bulb Temperature Range Modifier Schedule Name
  ASHRAETau,                              ! Solar Model Indicator
  ,                                       ! Beam Solar Day Schedule Name
  ,                                       ! Diffuse Solar Day Schedule Name
  0.588,                                  ! ASHRAE Taub {dimensionless}
  1.653;                                  ! ASHRAE Taud {dimensionless}

OS:ComponentData,
  {db0d3487-27c0-4198-8889-5d01a046582b}, ! Handle
  Component Data 1,                       ! Name
  {b697df6c-ae8b-42a4-9b9d-e5e0a975857e}, ! UUID
  {514b0259-f459-4fd5-95e1-05bdab76f682}, ! Version UUID
  1366306298,                             ! Creation Timestamp
  1366306298,                             ! Version Timestamp
  {1700c9e7-a496-45a9-b062-5e30592e8b0d}; ! Name of Object 1

