
OS:Version,
  {0568ba6d-de0c-4469-9808-f0239e9cbb4a}, ! Handle
  0.9.3;                                  ! Version Identifier

OS:SizingPeriod:DesignDay,
  {40d3b5af-3c4f-4cf0-83eb-30f73b826d1d}, ! Handle
  Trenton Mercer County Ap Ann Clg .4% Condns Enth=>MDB, ! Name
  31.4,                                   ! Maximum Dry-Bulb Temperature {C}
  10.5,                                   ! Daily Dry-Bulb Temperature Range {deltaC}
  77400,                                  ! Humidity Indicating Conditions at Maximum Dry-Bulb {BasedOnField A3}
  100547,                                 ! Barometric Pressure {Pa}
  4.7,                                    ! Wind Speed {m/s}
  250,                                    ! Wind Direction {deg}
  0,                                      ! Sky Clearness
  0,                                      ! Rain Indicator
  0,                                      ! Snow Indicator
  21,                                     ! Day of Month
  7,                                      ! Month
  SummerDesignDay,                        ! Day Type
  0,                                      ! Daylight Saving Time Indicator
  Enthalpy,                               ! Humidity Indicating Type
  ,                                       ! Humidity Indicating Day Schedule Name
  DefaultMultipliers,                     ! Dry-Bulb Temperature Range Modifier Type
  ,                                       ! Dry-Bulb Temperature Range Modifier Schedule Name
  ASHRAETau,                              ! Solar Model Indicator
  ,                                       ! Beam Solar Day Schedule Name
  ,                                       ! Diffuse Solar Day Schedule Name
  0.527,                                  ! ASHRAE Taub {dimensionless}
  1.83;                                   ! ASHRAE Taud {dimensionless}

OS:ComponentData,
  {0764b44b-eebf-4631-9b3a-fbc19839e932}, ! Handle
  Component Data 1,                       ! Name
  {790718f5-85b9-4f2e-99e4-40610001d627}, ! UUID
  {7dd28152-f16b-41c6-ad3b-6a25b5048dcc}, ! Version UUID
  1366309353,                             ! Creation Timestamp
  1366309353,                             ! Version Timestamp
  {40d3b5af-3c4f-4cf0-83eb-30f73b826d1d}; ! Name of Object 1

