
OS:Version,
  {dcd309bf-4825-49fb-ba33-b0fa6a500e0c}, ! Handle
  0.9.3;                                  ! Version Identifier

OS:SizingPeriod:DesignDay,
  {cb2e5630-30d4-4599-985a-18f6113853ba}, ! Handle
  Valentine Miller Field Ann Clg 2% Condns Enth=>MDB, ! Name
  29.8,                                   ! Maximum Dry-Bulb Temperature {C}
  14.7,                                   ! Daily Dry-Bulb Temperature Range {deltaC}
  65200,                                  ! Humidity Indicating Conditions at Maximum Dry-Bulb {BasedOnField A3}
  92199,                                  ! Barometric Pressure {Pa}
  6.5,                                    ! Wind Speed {m/s}
  170,                                    ! Wind Direction {deg}
  0,                                      ! Sky Clearness
  0,                                      ! Rain Indicator
  0,                                      ! Snow Indicator
  21,                                     ! Day of Month
  7,                                      ! Month
  SummerDesignDay,                        ! Day Type
  0,                                      ! Daylight Saving Time Indicator
  Enthalpy,                               ! Humidity Indicating Type
  ,                                       ! Humidity Indicating Day Schedule Name
  DefaultMultipliers,                     ! Dry-Bulb Temperature Range Modifier Type
  ,                                       ! Dry-Bulb Temperature Range Modifier Schedule Name
  ASHRAETau,                              ! Solar Model Indicator
  ,                                       ! Beam Solar Day Schedule Name
  ,                                       ! Diffuse Solar Day Schedule Name
  0.416,                                  ! ASHRAE Taub {dimensionless}
  2.126;                                  ! ASHRAE Taud {dimensionless}

OS:ComponentData,
  {d3501c61-ce4a-492d-9ea7-ac6dd14c8724}, ! Handle
  Component Data 1,                       ! Name
  {9a1a2520-fc3c-46b7-a20a-f534f070d290}, ! UUID
  {87973eb5-046d-4752-b8ea-318f003a16c1}, ! Version UUID
  1366309212,                             ! Creation Timestamp
  1366309212,                             ! Version Timestamp
  {cb2e5630-30d4-4599-985a-18f6113853ba}; ! Name of Object 1

