
OS:Version,
  {675508b4-34e9-408f-9713-1bf1cd22f593}, ! Handle
  0.9.3;                                  ! Version Identifier

OS:SizingPeriod:DesignDay,
  {c27a8397-2446-466e-b84a-47ce260ef2dd}, ! Handle
  Sitka Japonski Ap Ann Clg .4% Condns DP=>MDB, ! Name
  16.6,                                   ! Maximum Dry-Bulb Temperature {C}
  4.8,                                    ! Daily Dry-Bulb Temperature Range {deltaC}
  14.7,                                   ! Humidity Indicating Conditions at Maximum Dry-Bulb {BasedOnField A3}
  101277,                                 ! Barometric Pressure {Pa}
  3.4,                                    ! Wind Speed {m/s}
  220,                                    ! Wind Direction {deg}
  0,                                      ! Sky Clearness
  0,                                      ! Rain Indicator
  0,                                      ! Snow Indicator
  21,                                     ! Day of Month
  8,                                      ! Month
  SummerDesignDay,                        ! Day Type
  0,                                      ! Daylight Saving Time Indicator
  Dewpoint,                               ! Humidity Indicating Type
  ,                                       ! Humidity Indicating Day Schedule Name
  DefaultMultipliers,                     ! Dry-Bulb Temperature Range Modifier Type
  ,                                       ! Dry-Bulb Temperature Range Modifier Schedule Name
  ASHRAETau,                              ! Solar Model Indicator
  ,                                       ! Beam Solar Day Schedule Name
  ,                                       ! Diffuse Solar Day Schedule Name
  0.368,                                  ! ASHRAE Taub {dimensionless}
  2.385;                                  ! ASHRAE Taud {dimensionless}

OS:ComponentData,
  {7ab08653-08be-41d7-9b24-c46989b6e1ef}, ! Handle
  Component Data 1,                       ! Name
  {4935ed09-0fa5-44a3-82e2-37cbaf8c7f9d}, ! UUID
  {c4c55e90-21a8-4c9d-ba73-5df6fbe4533b}, ! Version UUID
  1366305553,                             ! Creation Timestamp
  1366305553,                             ! Version Timestamp
  {c27a8397-2446-466e-b84a-47ce260ef2dd}; ! Name of Object 1

