
OS:Version,
  {11505038-29ad-426b-b952-9f4b251398a7}, ! Handle
  0.9.3;                                  ! Version Identifier

OS:SizingPeriod:DesignDay,
  {c58db2f3-5867-4967-bb85-0b659c8da314}, ! Handle
  McGrath Ann Clg 2% Condns WB=>MDB,      ! Name
  20.3,                                   ! Maximum Dry-Bulb Temperature {C}
  9.7,                                    ! Daily Dry-Bulb Temperature Range {deltaC}
  15.1,                                   ! Humidity Indicating Conditions at Maximum Dry-Bulb {BasedOnField A3}
  100094,                                 ! Barometric Pressure {Pa}
  3.2,                                    ! Wind Speed {m/s}
  0,                                      ! Wind Direction {deg}
  0,                                      ! Sky Clearness
  0,                                      ! Rain Indicator
  0,                                      ! Snow Indicator
  21,                                     ! Day of Month
  7,                                      ! Month
  SummerDesignDay,                        ! Day Type
  0,                                      ! Daylight Saving Time Indicator
  Wetbulb,                                ! Humidity Indicating Type
  ,                                       ! Humidity Indicating Day Schedule Name
  DefaultMultipliers,                     ! Dry-Bulb Temperature Range Modifier Type
  ,                                       ! Dry-Bulb Temperature Range Modifier Schedule Name
  ASHRAETau,                              ! Solar Model Indicator
  ,                                       ! Beam Solar Day Schedule Name
  ,                                       ! Diffuse Solar Day Schedule Name
  0.388,                                  ! ASHRAE Taub {dimensionless}
  2.208;                                  ! ASHRAE Taud {dimensionless}

OS:ComponentData,
  {8d6f8b4f-339f-4b43-a376-285436ee5e63}, ! Handle
  Component Data 1,                       ! Name
  {88bf69ee-5347-41e9-9ec1-fa2a281f0ff3}, ! UUID
  {3f1f35c5-63d9-42e5-9edd-9071356c2b46}, ! Version UUID
  1366305411,                             ! Creation Timestamp
  1366305411,                             ! Version Timestamp
  {c58db2f3-5867-4967-bb85-0b659c8da314}; ! Name of Object 1

