
OS:Version,
  {8b608679-c0ec-4055-b9e4-4e7495bd363b}, ! Handle
  0.9.3;                                  ! Version Identifier

OS:SizingPeriod:DesignDay,
  {1e956892-d80b-4a72-9ec8-abc360c6ee13}, ! Handle
  Waterloo Municipal Ap Ann Clg .4% Condns DP=>MDB, ! Name
  29.1,                                   ! Maximum Dry-Bulb Temperature {C}
  11.2,                                   ! Daily Dry-Bulb Temperature Range {deltaC}
  24.4,                                   ! Humidity Indicating Conditions at Maximum Dry-Bulb {BasedOnField A3}
  98193,                                  ! Barometric Pressure {Pa}
  5.5,                                    ! Wind Speed {m/s}
  190,                                    ! Wind Direction {deg}
  0,                                      ! Sky Clearness
  0,                                      ! Rain Indicator
  0,                                      ! Snow Indicator
  21,                                     ! Day of Month
  7,                                      ! Month
  SummerDesignDay,                        ! Day Type
  0,                                      ! Daylight Saving Time Indicator
  Dewpoint,                               ! Humidity Indicating Type
  ,                                       ! Humidity Indicating Day Schedule Name
  DefaultMultipliers,                     ! Dry-Bulb Temperature Range Modifier Type
  ,                                       ! Dry-Bulb Temperature Range Modifier Schedule Name
  ASHRAETau,                              ! Solar Model Indicator
  ,                                       ! Beam Solar Day Schedule Name
  ,                                       ! Diffuse Solar Day Schedule Name
  0.427,                                  ! ASHRAE Taub {dimensionless}
  2.147;                                  ! ASHRAE Taud {dimensionless}

OS:ComponentData,
  {5bfa651e-5442-4a0b-aa59-5668cc766bab}, ! Handle
  Component Data 1,                       ! Name
  {dbeb9a1f-09c5-447d-b7b3-e587ef5d35b2}, ! UUID
  {a483c72d-b330-4170-bfa9-183c173c9b6d}, ! Version UUID
  1366307255,                             ! Creation Timestamp
  1366307255,                             ! Version Timestamp
  {1e956892-d80b-4a72-9ec8-abc360c6ee13}; ! Name of Object 1

