
OS:Version,
  {644841e8-0a0d-49a4-89d5-826d0c794198}, ! Handle
  0.9.3;                                  ! Version Identifier

OS:SizingPeriod:DesignDay,
  {5e64405b-9d06-490c-805a-b63899cb3e24}, ! Handle
  Virginia Tech Arpt Ann Clg 1% Condns DP=>MDB, ! Name
  25.8,                                   ! Maximum Dry-Bulb Temperature {C}
  10.7,                                   ! Daily Dry-Bulb Temperature Range {deltaC}
  21.2,                                   ! Humidity Indicating Conditions at Maximum Dry-Bulb {BasedOnField A3}
  93756,                                  ! Barometric Pressure {Pa}
  2.9,                                    ! Wind Speed {m/s}
  300,                                    ! Wind Direction {deg}
  0,                                      ! Sky Clearness
  0,                                      ! Rain Indicator
  0,                                      ! Snow Indicator
  21,                                     ! Day of Month
  7,                                      ! Month
  SummerDesignDay,                        ! Day Type
  0,                                      ! Daylight Saving Time Indicator
  Dewpoint,                               ! Humidity Indicating Type
  ,                                       ! Humidity Indicating Day Schedule Name
  DefaultMultipliers,                     ! Dry-Bulb Temperature Range Modifier Type
  ,                                       ! Dry-Bulb Temperature Range Modifier Schedule Name
  ASHRAETau,                              ! Solar Model Indicator
  ,                                       ! Beam Solar Day Schedule Name
  ,                                       ! Diffuse Solar Day Schedule Name
  0.505,                                  ! ASHRAE Taub {dimensionless}
  1.859;                                  ! ASHRAE Taud {dimensionless}

OS:ComponentData,
  {e793b1fa-c4ce-4eb0-a915-250b18bf9ea3}, ! Handle
  Component Data 1,                       ! Name
  {41ec3b80-5ae3-4c3c-a1d5-f16f98a46282}, ! UUID
  {5a3fbfe4-c10d-42be-9b80-9b57a914257a}, ! Version UUID
  1366311024,                             ! Creation Timestamp
  1366311024,                             ! Version Timestamp
  {5e64405b-9d06-490c-805a-b63899cb3e24}; ! Name of Object 1

