
OS:Version,
  {25e7116a-83f1-4599-9ac0-6bcfe3b287d9}, ! Handle
  0.9.3;                                  ! Version Identifier

OS:SizingPeriod:DesignDay,
  {0ccbcd02-8ad0-446b-88e1-bf38619a1ce0}, ! Handle
  Somerset Awos Ann Clg 2% Condns DP=>MDB, ! Name
  28.1,                                   ! Maximum Dry-Bulb Temperature {C}
  11.7,                                   ! Daily Dry-Bulb Temperature Range {deltaC}
  22.3,                                   ! Humidity Indicating Conditions at Maximum Dry-Bulb {BasedOnField A3}
  97971,                                  ! Barometric Pressure {Pa}
  2.3,                                    ! Wind Speed {m/s}
  250,                                    ! Wind Direction {deg}
  0,                                      ! Sky Clearness
  0,                                      ! Rain Indicator
  0,                                      ! Snow Indicator
  21,                                     ! Day of Month
  7,                                      ! Month
  SummerDesignDay,                        ! Day Type
  0,                                      ! Daylight Saving Time Indicator
  Dewpoint,                               ! Humidity Indicating Type
  ,                                       ! Humidity Indicating Day Schedule Name
  DefaultMultipliers,                     ! Dry-Bulb Temperature Range Modifier Type
  ,                                       ! Dry-Bulb Temperature Range Modifier Schedule Name
  ASHRAETau,                              ! Solar Model Indicator
  ,                                       ! Beam Solar Day Schedule Name
  ,                                       ! Diffuse Solar Day Schedule Name
  0.505,                                  ! ASHRAE Taub {dimensionless}
  1.881;                                  ! ASHRAE Taud {dimensionless}

OS:ComponentData,
  {07c750cc-1a36-436d-bc35-3040aaae6324}, ! Handle
  Component Data 1,                       ! Name
  {587e123c-4ca4-48db-ad7f-1d33a6e87282}, ! UUID
  {6bd2ece7-1e0c-4524-b12f-86e267a1e7b1}, ! Version UUID
  1366307688,                             ! Creation Timestamp
  1366307688,                             ! Version Timestamp
  {0ccbcd02-8ad0-446b-88e1-bf38619a1ce0}; ! Name of Object 1

