
OS:Version,
  {b05f5924-a54a-42e4-ba54-b7bcb2539b4b}, ! Handle
  0.9.3;                                  ! Version Identifier

OS:SizingPeriod:DesignDay,
  {330155af-2ff8-4d66-92a3-53693be6edbb}, ! Handle
  Portland International Ap Ann Clg 1% Condns Enth=>MDB, ! Name
  29.1,                                   ! Maximum Dry-Bulb Temperature {C}
  12.2,                                   ! Daily Dry-Bulb Temperature Range {deltaC}
  56600,                                  ! Humidity Indicating Conditions at Maximum Dry-Bulb {BasedOnField A3}
  101253,                                 ! Barometric Pressure {Pa}
  4.7,                                    ! Wind Speed {m/s}
  310,                                    ! Wind Direction {deg}
  0,                                      ! Sky Clearness
  0,                                      ! Rain Indicator
  0,                                      ! Snow Indicator
  21,                                     ! Day of Month
  8,                                      ! Month
  SummerDesignDay,                        ! Day Type
  0,                                      ! Daylight Saving Time Indicator
  Enthalpy,                               ! Humidity Indicating Type
  ,                                       ! Humidity Indicating Day Schedule Name
  DefaultMultipliers,                     ! Dry-Bulb Temperature Range Modifier Type
  ,                                       ! Dry-Bulb Temperature Range Modifier Schedule Name
  ASHRAETau,                              ! Solar Model Indicator
  ,                                       ! Beam Solar Day Schedule Name
  ,                                       ! Diffuse Solar Day Schedule Name
  0.358,                                  ! ASHRAE Taub {dimensionless}
  2.549;                                  ! ASHRAE Taud {dimensionless}

OS:ComponentData,
  {e97426da-0265-4532-ac3c-be9d19d7c315}, ! Handle
  Component Data 1,                       ! Name
  {5cf85786-5bcd-4982-b95a-c92059451400}, ! UUID
  {42f15867-f20a-4b28-89a4-b74bfd9bba75}, ! Version UUID
  1366310089,                             ! Creation Timestamp
  1366310089,                             ! Version Timestamp
  {330155af-2ff8-4d66-92a3-53693be6edbb}; ! Name of Object 1

