
OS:Version,
  {03ec638d-0fca-4d30-a96c-a6e1e4d7baa7}, ! Handle
  0.9.3;                                  ! Version Identifier

OS:SizingPeriod:DesignDay,
  {8a695c90-e46a-4e3c-a42b-d2716851e5af}, ! Handle
  Olympia Ann Clg .4% Condns DP=>MDB,     ! Name
  22,                                     ! Maximum Dry-Bulb Temperature {C}
  14.6,                                   ! Daily Dry-Bulb Temperature Range {deltaC}
  16.3,                                   ! Humidity Indicating Conditions at Maximum Dry-Bulb {BasedOnField A3}
  100594,                                 ! Barometric Pressure {Pa}
  3.4,                                    ! Wind Speed {m/s}
  20,                                     ! Wind Direction {deg}
  0,                                      ! Sky Clearness
  0,                                      ! Rain Indicator
  0,                                      ! Snow Indicator
  21,                                     ! Day of Month
  8,                                      ! Month
  SummerDesignDay,                        ! Day Type
  0,                                      ! Daylight Saving Time Indicator
  Dewpoint,                               ! Humidity Indicating Type
  ,                                       ! Humidity Indicating Day Schedule Name
  DefaultMultipliers,                     ! Dry-Bulb Temperature Range Modifier Type
  ,                                       ! Dry-Bulb Temperature Range Modifier Schedule Name
  ASHRAETau,                              ! Solar Model Indicator
  ,                                       ! Beam Solar Day Schedule Name
  ,                                       ! Diffuse Solar Day Schedule Name
  0.359,                                  ! ASHRAE Taub {dimensionless}
  2.536;                                  ! ASHRAE Taud {dimensionless}

OS:ComponentData,
  {e7646009-844d-4a30-ba24-626ad022cfb0}, ! Handle
  Component Data 1,                       ! Name
  {e144c654-e047-4127-ae3b-9fc1c4a5dc55}, ! UUID
  {f1439721-39d4-4766-8fd7-b83c6f167e33}, ! Version UUID
  1366311310,                             ! Creation Timestamp
  1366311310,                             ! Version Timestamp
  {8a695c90-e46a-4e3c-a42b-d2716851e5af}; ! Name of Object 1

