
OS:Version,
  {583e2d02-2842-46ac-a313-b533bad12d9e}, ! Handle
  0.9.3;                                  ! Version Identifier

OS:SizingPeriod:DesignDay,
  {e2b3c423-a54e-4b0c-aee3-fc3ff5de3dd5}, ! Handle
  Tuscaloosa Municipal Ap Ann Clg .4% Condns DP=>MDB, ! Name
  28.7,                                   ! Maximum Dry-Bulb Temperature {C}
  10.7,                                   ! Daily Dry-Bulb Temperature Range {deltaC}
  25.1,                                   ! Humidity Indicating Conditions at Maximum Dry-Bulb {BasedOnField A3}
  100714,                                 ! Barometric Pressure {Pa}
  3.2,                                    ! Wind Speed {m/s}
  250,                                    ! Wind Direction {deg}
  0,                                      ! Sky Clearness
  0,                                      ! Rain Indicator
  0,                                      ! Snow Indicator
  21,                                     ! Day of Month
  7,                                      ! Month
  SummerDesignDay,                        ! Day Type
  0,                                      ! Daylight Saving Time Indicator
  Dewpoint,                               ! Humidity Indicating Type
  ,                                       ! Humidity Indicating Day Schedule Name
  DefaultMultipliers,                     ! Dry-Bulb Temperature Range Modifier Type
  ,                                       ! Dry-Bulb Temperature Range Modifier Schedule Name
  ASHRAETau,                              ! Solar Model Indicator
  ,                                       ! Beam Solar Day Schedule Name
  ,                                       ! Diffuse Solar Day Schedule Name
  0.574,                                  ! ASHRAE Taub {dimensionless}
  1.754;                                  ! ASHRAE Taud {dimensionless}

OS:ComponentData,
  {218b9163-663a-4c64-bf61-acb4118a1572}, ! Handle
  Component Data 1,                       ! Name
  {2fba29fd-8b0f-4745-84ff-443d17dbc534}, ! UUID
  {6d072f8f-61ce-4111-acdc-38218f628dc7}, ! Version UUID
  1366306033,                             ! Creation Timestamp
  1366306033,                             ! Version Timestamp
  {e2b3c423-a54e-4b0c-aee3-fc3ff5de3dd5}; ! Name of Object 1

