
OS:Version,
  {78233bde-c4f9-40a7-8370-b0b0a7f97a5f}, ! Handle
  0.9.3;                                  ! Version Identifier

OS:SizingPeriod:DesignDay,
  {7730d9ea-998a-408e-907f-64de60f377ac}, ! Handle
  Skagway Airport Ann Clg 2% Condns DP=>MDB, ! Name
  14.8,                                   ! Maximum Dry-Bulb Temperature {C}
  6,                                      ! Daily Dry-Bulb Temperature Range {deltaC}
  12.1,                                   ! Humidity Indicating Conditions at Maximum Dry-Bulb {BasedOnField A3}
  101217,                                 ! Barometric Pressure {Pa}
  5,                                      ! Wind Speed {m/s}
  210,                                    ! Wind Direction {deg}
  0,                                      ! Sky Clearness
  0,                                      ! Rain Indicator
  0,                                      ! Snow Indicator
  21,                                     ! Day of Month
  7,                                      ! Month
  SummerDesignDay,                        ! Day Type
  0,                                      ! Daylight Saving Time Indicator
  Dewpoint,                               ! Humidity Indicating Type
  ,                                       ! Humidity Indicating Day Schedule Name
  DefaultMultipliers,                     ! Dry-Bulb Temperature Range Modifier Type
  ,                                       ! Dry-Bulb Temperature Range Modifier Schedule Name
  ASHRAETau,                              ! Solar Model Indicator
  ,                                       ! Beam Solar Day Schedule Name
  ,                                       ! Diffuse Solar Day Schedule Name
  0.441,                                  ! ASHRAE Taub {dimensionless}
  1.907;                                  ! ASHRAE Taud {dimensionless}

OS:ComponentData,
  {5200e491-3c96-4932-8009-efd9bb48eea7}, ! Handle
  Component Data 1,                       ! Name
  {5417e3ae-613e-4e21-a880-711b2d94485e}, ! UUID
  {f50d64e5-f70d-46ad-9ea6-be49ddc7cf10}, ! Version UUID
  1366305560,                             ! Creation Timestamp
  1366305560,                             ! Version Timestamp
  {7730d9ea-998a-408e-907f-64de60f377ac}; ! Name of Object 1

