
OS:Version,
  {aacf434c-3d7e-4c0e-a8eb-b83de4e96ebc}, ! Handle
  0.9.3;                                  ! Version Identifier

OS:SizingPeriod:DesignDay,
  {09c23842-441b-416b-8bf8-0aad325ec0c9}, ! Handle
  Snohomish Co Ann Clg .4% Condns DP=>MDB, ! Name
  20.1,                                   ! Maximum Dry-Bulb Temperature {C}
  9,                                      ! Daily Dry-Bulb Temperature Range {deltaC}
  16.2,                                   ! Humidity Indicating Conditions at Maximum Dry-Bulb {BasedOnField A3}
  99075,                                  ! Barometric Pressure {Pa}
  3.2,                                    ! Wind Speed {m/s}
  350,                                    ! Wind Direction {deg}
  0,                                      ! Sky Clearness
  0,                                      ! Rain Indicator
  0,                                      ! Snow Indicator
  21,                                     ! Day of Month
  8,                                      ! Month
  SummerDesignDay,                        ! Day Type
  0,                                      ! Daylight Saving Time Indicator
  Dewpoint,                               ! Humidity Indicating Type
  ,                                       ! Humidity Indicating Day Schedule Name
  DefaultMultipliers,                     ! Dry-Bulb Temperature Range Modifier Type
  ,                                       ! Dry-Bulb Temperature Range Modifier Schedule Name
  ASHRAETau,                              ! Solar Model Indicator
  ,                                       ! Beam Solar Day Schedule Name
  ,                                       ! Diffuse Solar Day Schedule Name
  0.351,                                  ! ASHRAE Taub {dimensionless}
  2.554;                                  ! ASHRAE Taud {dimensionless}

OS:ComponentData,
  {7fc599be-51b7-41af-b332-1d3549bf8d5a}, ! Handle
  Component Data 1,                       ! Name
  {b2816cd4-3492-4c9b-83be-f55bdd3180ea}, ! UUID
  {8a341a2e-efc4-4569-8862-2b583755ccf5}, ! Version UUID
  1366311371,                             ! Creation Timestamp
  1366311371,                             ! Version Timestamp
  {09c23842-441b-416b-8bf8-0aad325ec0c9}; ! Name of Object 1

