
OS:Version,
  {22d308fc-96f1-43c4-b542-ba17e5f82049}, ! Handle
  0.9.3;                                  ! Version Identifier

OS:SizingPeriod:DesignDay,
  {5a3d473e-517c-4acb-84b8-674724447cc3}, ! Handle
  WATERLOO Ann Hum_n 99.6% Condns DP=>MCDB, ! Name
  -24.7,                                  ! Maximum Dry-Bulb Temperature {C}
  0,                                      ! Daily Dry-Bulb Temperature Range {deltaC}
  -29.1,                                  ! Humidity Indicating Conditions at Maximum Dry-Bulb {BasedOnField A3}
  98182,                                  ! Barometric Pressure {Pa}
  3.9,                                    ! Wind Speed {m/s}
  310,                                    ! Wind Direction {deg}
  0,                                      ! Sky Clearness
  0,                                      ! Rain Indicator
  0,                                      ! Snow Indicator
  21,                                     ! Day of Month
  1,                                      ! Month
  WinterDesignDay,                        ! Day Type
  0,                                      ! Daylight Saving Time Indicator
  Dewpoint,                               ! Humidity Indicating Type
  ,                                       ! Humidity Indicating Day Schedule Name
  DefaultMultipliers,                     ! Dry-Bulb Temperature Range Modifier Type
  ,                                       ! Dry-Bulb Temperature Range Modifier Schedule Name
  ASHRAEClearSky;                         ! Solar Model Indicator

