
OS:Version,
  {c6dc70b5-4477-47de-9177-2ca8f0711961}, ! Handle
  0.9.3;                                  ! Version Identifier

OS:SizingPeriod:DesignDay,
  {374bac07-26a1-4e64-b648-6a5c58d56070}, ! Handle
  Webster City Ann Clg 2% Condns DB=>MWB, ! Name
  31.2,                                   ! Maximum Dry-Bulb Temperature {C}
  11,                                     ! Daily Dry-Bulb Temperature Range {deltaC}
  24.3,                                   ! Humidity Indicating Conditions at Maximum Dry-Bulb {BasedOnField A3}
  97283,                                  ! Barometric Pressure {Pa}
  5.8,                                    ! Wind Speed {m/s}
  200,                                    ! Wind Direction {deg}
  0,                                      ! Sky Clearness
  0,                                      ! Rain Indicator
  0,                                      ! Snow Indicator
  21,                                     ! Day of Month
  7,                                      ! Month
  SummerDesignDay,                        ! Day Type
  0,                                      ! Daylight Saving Time Indicator
  Wetbulb,                                ! Humidity Indicating Type
  ,                                       ! Humidity Indicating Day Schedule Name
  DefaultMultipliers,                     ! Dry-Bulb Temperature Range Modifier Type
  ,                                       ! Dry-Bulb Temperature Range Modifier Schedule Name
  ASHRAETau,                              ! Solar Model Indicator
  ,                                       ! Beam Solar Day Schedule Name
  ,                                       ! Diffuse Solar Day Schedule Name
  0.412,                                  ! ASHRAE Taub {dimensionless}
  2.206;                                  ! ASHRAE Taud {dimensionless}

OS:ComponentData,
  {53b195d9-e23a-432f-986c-27cd425c7f69}, ! Handle
  Component Data 1,                       ! Name
  {02400dca-f4d2-49aa-a951-0a5c25fbbac2}, ! UUID
  {4a729c90-24b5-416e-af73-e8b29e8ecba8}, ! Version UUID
  1366307259,                             ! Creation Timestamp
  1366307259,                             ! Version Timestamp
  {374bac07-26a1-4e64-b648-6a5c58d56070}; ! Name of Object 1

