
OS:Version,
  {71bd15eb-ade3-4c2c-8212-b059991d5113}, ! Handle
  0.9.3;                                  ! Version Identifier

OS:SizingPeriod:DesignDay,
  {4d8781f0-4582-4bda-8004-30f9d95b0d1a}, ! Handle
  Yuma Ann Clg 1% Condns DP=>MDB,         ! Name
  31.3,                                   ! Maximum Dry-Bulb Temperature {C}
  13.1,                                   ! Daily Dry-Bulb Temperature Range {deltaC}
  23.2,                                   ! Humidity Indicating Conditions at Maximum Dry-Bulb {BasedOnField A3}
  100582,                                 ! Barometric Pressure {Pa}
  3.3,                                    ! Wind Speed {m/s}
  270,                                    ! Wind Direction {deg}
  0,                                      ! Sky Clearness
  0,                                      ! Rain Indicator
  0,                                      ! Snow Indicator
  21,                                     ! Day of Month
  7,                                      ! Month
  SummerDesignDay,                        ! Day Type
  0,                                      ! Daylight Saving Time Indicator
  Dewpoint,                               ! Humidity Indicating Type
  ,                                       ! Humidity Indicating Day Schedule Name
  DefaultMultipliers,                     ! Dry-Bulb Temperature Range Modifier Type
  ,                                       ! Dry-Bulb Temperature Range Modifier Schedule Name
  ASHRAETau,                              ! Solar Model Indicator
  ,                                       ! Beam Solar Day Schedule Name
  ,                                       ! Diffuse Solar Day Schedule Name
  0.533,                                  ! ASHRAE Taub {dimensionless}
  1.764;                                  ! ASHRAE Taud {dimensionless}

OS:ComponentData,
  {401e2122-d7b3-42f9-a8a5-64037e166330}, ! Handle
  Component Data 1,                       ! Name
  {12a03233-2e41-4d3e-9c4c-b1949b82c214}, ! UUID
  {76fcdd5f-9ed0-4fea-b7e0-f60969d6c7a2}, ! Version UUID
  1366306335,                             ! Creation Timestamp
  1366306335,                             ! Version Timestamp
  {4d8781f0-4582-4bda-8004-30f9d95b0d1a}; ! Name of Object 1

