
OS:Version,
  {7dd085b5-a4ca-444b-b6a9-1865c72977e6}, ! Handle
  0.9.3;                                  ! Version Identifier

OS:SizingPeriod:DesignDay,
  {4481f4e6-244d-4b09-affd-e6665d3f2e89}, ! Handle
  Middletown Harrisburg Intl Ap Ann Clg 1% Condns Enth=>MDB, ! Name
  29.6,                                   ! Maximum Dry-Bulb Temperature {C}
  9.6,                                    ! Daily Dry-Bulb Temperature Range {deltaC}
  75100,                                  ! Humidity Indicating Conditions at Maximum Dry-Bulb {BasedOnField A3}
  100225,                                 ! Barometric Pressure {Pa}
  4.4,                                    ! Wind Speed {m/s}
  300,                                    ! Wind Direction {deg}
  0,                                      ! Sky Clearness
  0,                                      ! Rain Indicator
  0,                                      ! Snow Indicator
  21,                                     ! Day of Month
  7,                                      ! Month
  SummerDesignDay,                        ! Day Type
  0,                                      ! Daylight Saving Time Indicator
  Enthalpy,                               ! Humidity Indicating Type
  ,                                       ! Humidity Indicating Day Schedule Name
  DefaultMultipliers,                     ! Dry-Bulb Temperature Range Modifier Type
  ,                                       ! Dry-Bulb Temperature Range Modifier Schedule Name
  ASHRAETau,                              ! Solar Model Indicator
  ,                                       ! Beam Solar Day Schedule Name
  ,                                       ! Diffuse Solar Day Schedule Name
  0.521,                                  ! ASHRAE Taub {dimensionless}
  1.834;                                  ! ASHRAE Taud {dimensionless}

OS:ComponentData,
  {bc33d829-fb7c-4de7-bef5-20afde82e723}, ! Handle
  Component Data 1,                       ! Name
  {eca0cb77-1d49-4ef3-84a7-a39f7531b256}, ! UUID
  {9862dc40-a3ce-4eda-8994-153ea6df7ce9}, ! Version UUID
  1366310198,                             ! Creation Timestamp
  1366310198,                             ! Version Timestamp
  {4481f4e6-244d-4b09-affd-e6665d3f2e89}; ! Name of Object 1

