
OS:Version,
  {dccb3eb3-1776-48e6-9f8c-0356faa88869}, ! Handle
  0.9.3;                                  ! Version Identifier

OS:SizingPeriod:DesignDay,
  {2e85db0b-7765-4bbb-a3f9-a6d928309089}, ! Handle
  Martinsburg Eastern Wv Reg Ap Ann Clg 2% Condns DB=>MWB, ! Name
  31.1,                                   ! Maximum Dry-Bulb Temperature {C}
  11.6,                                   ! Daily Dry-Bulb Temperature Range {deltaC}
  22.2,                                   ! Humidity Indicating Conditions at Maximum Dry-Bulb {BasedOnField A3}
  99394,                                  ! Barometric Pressure {Pa}
  4,                                      ! Wind Speed {m/s}
  270,                                    ! Wind Direction {deg}
  0,                                      ! Sky Clearness
  0,                                      ! Rain Indicator
  0,                                      ! Snow Indicator
  21,                                     ! Day of Month
  7,                                      ! Month
  SummerDesignDay,                        ! Day Type
  0,                                      ! Daylight Saving Time Indicator
  Wetbulb,                                ! Humidity Indicating Type
  ,                                       ! Humidity Indicating Day Schedule Name
  DefaultMultipliers,                     ! Dry-Bulb Temperature Range Modifier Type
  ,                                       ! Dry-Bulb Temperature Range Modifier Schedule Name
  ASHRAETau,                              ! Solar Model Indicator
  ,                                       ! Beam Solar Day Schedule Name
  ,                                       ! Diffuse Solar Day Schedule Name
  0.53,                                   ! ASHRAE Taub {dimensionless}
  1.809;                                  ! ASHRAE Taud {dimensionless}

OS:ComponentData,
  {4c9c6177-06e5-448a-86ea-72912cdac379}, ! Handle
  Component Data 1,                       ! Name
  {dc8dcafc-80e9-4305-96fa-1c445f442366}, ! UUID
  {209fc478-6140-4e5c-b2fa-f0d031574cdc}, ! Version UUID
  1366311665,                             ! Creation Timestamp
  1366311665,                             ! Version Timestamp
  {2e85db0b-7765-4bbb-a3f9-a6d928309089}; ! Name of Object 1

