
OS:Version,
  {0a63cff9-7d48-4286-aeb1-4577080f02aa}, ! Handle
  0.9.3;                                  ! Version Identifier

OS:SizingPeriod:DesignDay,
  {e02f40b2-4b12-482c-a69c-09784630d8d2}, ! Handle
  SIOUX_CITY Ann Clg .4% Condns DP=>MDB,  ! Name
  29.4,                                   ! Maximum Dry-Bulb Temperature {C}
  11.4,                                   ! Daily Dry-Bulb Temperature Range {deltaC}
  24.4,                                   ! Humidity Indicating Conditions at Maximum Dry-Bulb {BasedOnField A3}
  97353,                                  ! Barometric Pressure {Pa}
  6.3,                                    ! Wind Speed {m/s}
  180,                                    ! Wind Direction {deg}
  0,                                      ! Sky Clearness
  0,                                      ! Rain Indicator
  0,                                      ! Snow Indicator
  21,                                     ! Day of Month
  7,                                      ! Month
  SummerDesignDay,                        ! Day Type
  0,                                      ! Daylight Saving Time Indicator
  Dewpoint,                               ! Humidity Indicating Type
  ,                                       ! Humidity Indicating Day Schedule Name
  DefaultMultipliers,                     ! Dry-Bulb Temperature Range Modifier Type
  ,                                       ! Dry-Bulb Temperature Range Modifier Schedule Name
  ASHRAETau,                              ! Solar Model Indicator
  ,                                       ! Beam Solar Day Schedule Name
  ,                                       ! Diffuse Solar Day Schedule Name
  0.409,                                  ! ASHRAE Taub {dimensionless}
  2.217;                                  ! ASHRAE Taud {dimensionless}

OS:ComponentData,
  {56acc52a-4d5f-47ab-8af1-8f43e7dabaa8}, ! Handle
  Component Data 1,                       ! Name
  {6915c6d2-b1bf-4a70-a1a9-ba1bb2eebc68}, ! UUID
  {d85c8abc-645f-4d3e-8e44-95b63b46664e}, ! Version UUID
  1366307239,                             ! Creation Timestamp
  1366307239,                             ! Version Timestamp
  {e02f40b2-4b12-482c-a69c-09784630d8d2}; ! Name of Object 1

