
OS:Version,
  {6405279a-39f8-4518-bf56-de4f4055c7c7}, ! Handle
  0.9.3;                                  ! Version Identifier

OS:SizingPeriod:DesignDay,
  {394f2f65-0d15-4b90-ab15-959b81fde055}, ! Handle
  Sidney Municipal Ap Ann Clg 1% Condns DB=>MWB, ! Name
  33.7,                                   ! Maximum Dry-Bulb Temperature {C}
  15.8,                                   ! Daily Dry-Bulb Temperature Range {deltaC}
  17.3,                                   ! Humidity Indicating Conditions at Maximum Dry-Bulb {BasedOnField A3}
  86514,                                  ! Barometric Pressure {Pa}
  5.4,                                    ! Wind Speed {m/s}
  170,                                    ! Wind Direction {deg}
  0,                                      ! Sky Clearness
  0,                                      ! Rain Indicator
  0,                                      ! Snow Indicator
  21,                                     ! Day of Month
  7,                                      ! Month
  SummerDesignDay,                        ! Day Type
  0,                                      ! Daylight Saving Time Indicator
  Wetbulb,                                ! Humidity Indicating Type
  ,                                       ! Humidity Indicating Day Schedule Name
  DefaultMultipliers,                     ! Dry-Bulb Temperature Range Modifier Type
  ,                                       ! Dry-Bulb Temperature Range Modifier Schedule Name
  ASHRAETau,                              ! Solar Model Indicator
  ,                                       ! Beam Solar Day Schedule Name
  ,                                       ! Diffuse Solar Day Schedule Name
  0.417,                                  ! ASHRAE Taub {dimensionless}
  2.037;                                  ! ASHRAE Taud {dimensionless}

OS:ComponentData,
  {cfd6847d-3315-4d3b-96e8-a02c69768179}, ! Handle
  Component Data 1,                       ! Name
  {f6a88d57-2465-4552-8d2e-1c5d4bf21214}, ! UUID
  {c3c36e30-1b54-4655-a0ac-bd40bbb9dcac}, ! Version UUID
  1366309202,                             ! Creation Timestamp
  1366309202,                             ! Version Timestamp
  {394f2f65-0d15-4b90-ab15-959b81fde055}; ! Name of Object 1

