
OS:Version,
  {f1ed4e11-0f14-47c2-8b25-d718516c6ee0}, ! Handle
  0.9.3;                                  ! Version Identifier

OS:SizingPeriod:DesignDay,
  {ff3c24e1-1252-430d-a829-a7696912ca8d}, ! Handle
  South St Paul Muni Ann Clg 2% Condns WB=>MDB, ! Name
  27.6,                                   ! Maximum Dry-Bulb Temperature {C}
  10.1,                                   ! Daily Dry-Bulb Temperature Range {deltaC}
  22.9,                                   ! Humidity Indicating Conditions at Maximum Dry-Bulb {BasedOnField A3}
  98358,                                  ! Barometric Pressure {Pa}
  3.3,                                    ! Wind Speed {m/s}
  180,                                    ! Wind Direction {deg}
  0,                                      ! Sky Clearness
  0,                                      ! Rain Indicator
  0,                                      ! Snow Indicator
  21,                                     ! Day of Month
  7,                                      ! Month
  SummerDesignDay,                        ! Day Type
  0,                                      ! Daylight Saving Time Indicator
  Wetbulb,                                ! Humidity Indicating Type
  ,                                       ! Humidity Indicating Day Schedule Name
  DefaultMultipliers,                     ! Dry-Bulb Temperature Range Modifier Type
  ,                                       ! Dry-Bulb Temperature Range Modifier Schedule Name
  ASHRAETau,                              ! Solar Model Indicator
  ,                                       ! Beam Solar Day Schedule Name
  ,                                       ! Diffuse Solar Day Schedule Name
  0.416,                                  ! ASHRAE Taub {dimensionless}
  2.183;                                  ! ASHRAE Taud {dimensionless}

OS:ComponentData,
  {8dae790c-994b-4b81-8472-b1f01bca0b87}, ! Handle
  Component Data 1,                       ! Name
  {d0e651e0-f959-4014-8edc-cb6efd9245e0}, ! UUID
  {092bd80e-4429-483c-ae69-bb539382532f}, ! Version UUID
  1366308423,                             ! Creation Timestamp
  1366308423,                             ! Version Timestamp
  {ff3c24e1-1252-430d-a829-a7696912ca8d}; ! Name of Object 1

