
OS:Version,
  {634e7f59-9448-418d-8100-6979f25ea011}, ! Handle
  0.9.3;                                  ! Version Identifier

OS:SizingPeriod:DesignDay,
  {03e130b0-0723-4a0b-a5ce-82f171d8edaa}, ! Handle
  Tuscaloosa Municipal Ap Ann Hum_n 99% Condns DP=>MCDB, ! Name
  0.9,                                    ! Maximum Dry-Bulb Temperature {C}
  0,                                      ! Daily Dry-Bulb Temperature Range {deltaC}
  -10.8,                                  ! Humidity Indicating Conditions at Maximum Dry-Bulb {BasedOnField A3}
  100714,                                 ! Barometric Pressure {Pa}
  2.1,                                    ! Wind Speed {m/s}
  340,                                    ! Wind Direction {deg}
  0,                                      ! Sky Clearness
  0,                                      ! Rain Indicator
  0,                                      ! Snow Indicator
  21,                                     ! Day of Month
  1,                                      ! Month
  WinterDesignDay,                        ! Day Type
  0,                                      ! Daylight Saving Time Indicator
  Dewpoint,                               ! Humidity Indicating Type
  ,                                       ! Humidity Indicating Day Schedule Name
  DefaultMultipliers,                     ! Dry-Bulb Temperature Range Modifier Type
  ,                                       ! Dry-Bulb Temperature Range Modifier Schedule Name
  ASHRAEClearSky;                         ! Solar Model Indicator

OS:ComponentData,
  {847c9ac0-6815-4d4c-86f7-49d7f42a57a4}, ! Handle
  Component Data 1,                       ! Name
  {c63951fd-0840-410b-a682-07b8be0e667f}, ! UUID
  {9bd51984-0b8c-4eb8-86c8-c976cc46ff2b}, ! Version UUID
  1366306023,                             ! Creation Timestamp
  1366306023,                             ! Version Timestamp
  {03e130b0-0723-4a0b-a5ce-82f171d8edaa}; ! Name of Object 1

