
OS:Version,
  {cd84774b-99a0-4ebc-8b16-b1d33f2a43aa}, ! Handle
  0.9.3;                                  ! Version Identifier

OS:SizingPeriod:DesignDay,
  {e7456680-8078-4f27-8f40-174b6d20225a}, ! Handle
  Seward Ann Htg Wind 99.6% Condns WS=>MCDB, ! Name
  -13.9,                                  ! Maximum Dry-Bulb Temperature {C}
  0,                                      ! Daily Dry-Bulb Temperature Range {deltaC}
  -13.9,                                  ! Humidity Indicating Conditions at Maximum Dry-Bulb {BasedOnField A3}
  101109,                                 ! Barometric Pressure {Pa}
  16,                                     ! Wind Speed {m/s}
  20,                                     ! Wind Direction {deg}
  0,                                      ! Sky Clearness
  0,                                      ! Rain Indicator
  0,                                      ! Snow Indicator
  21,                                     ! Day of Month
  1,                                      ! Month
  WinterDesignDay,                        ! Day Type
  0,                                      ! Daylight Saving Time Indicator
  Wetbulb,                                ! Humidity Indicating Type
  ,                                       ! Humidity Indicating Day Schedule Name
  DefaultMultipliers,                     ! Dry-Bulb Temperature Range Modifier Type
  ,                                       ! Dry-Bulb Temperature Range Modifier Schedule Name
  ASHRAEClearSky;                         ! Solar Model Indicator

OS:ComponentData,
  {1f80cb26-2aa7-4140-ae5a-020b3d4bda57}, ! Handle
  Component Data 1,                       ! Name
  {8d1765ca-b1af-4b3b-b3bd-def682d7f96f}, ! UUID
  {f1f98ac6-cff8-4905-a013-43b7ec35ff25}, ! Version UUID
  1366305535,                             ! Creation Timestamp
  1366305535,                             ! Version Timestamp
  {e7456680-8078-4f27-8f40-174b6d20225a}; ! Name of Object 1

