
OS:Version,
  {b19167f7-4d3b-4563-934b-9fa2a2806f31}, ! Handle
  0.9.3;                                  ! Version Identifier

OS:SizingPeriod:DesignDay,
  {cf7b2f79-ea9f-4d2e-8f7b-41256c3dfdbc}, ! Handle
  Orlando Intl Arpt Ann Hum_n 99% Condns DP=>MCDB, ! Name
  9.4,                                    ! Maximum Dry-Bulb Temperature {C}
  0,                                      ! Daily Dry-Bulb Temperature Range {deltaC}
  -2.7,                                   ! Humidity Indicating Conditions at Maximum Dry-Bulb {BasedOnField A3}
  100977,                                 ! Barometric Pressure {Pa}
  3.4,                                    ! Wind Speed {m/s}
  340,                                    ! Wind Direction {deg}
  0,                                      ! Sky Clearness
  0,                                      ! Rain Indicator
  0,                                      ! Snow Indicator
  21,                                     ! Day of Month
  1,                                      ! Month
  WinterDesignDay,                        ! Day Type
  0,                                      ! Daylight Saving Time Indicator
  Dewpoint,                               ! Humidity Indicating Type
  ,                                       ! Humidity Indicating Day Schedule Name
  DefaultMultipliers,                     ! Dry-Bulb Temperature Range Modifier Type
  ,                                       ! Dry-Bulb Temperature Range Modifier Schedule Name
  ASHRAEClearSky;                         ! Solar Model Indicator

OS:ComponentData,
  {b168e595-1e8a-48bf-8484-d6142043ec36}, ! Handle
  Component Data 1,                       ! Name
  {c01d0915-8ed0-40b0-b400-8cf70e28312c}, ! UUID
  {57d57007-f0bb-49e4-ad41-cc2b7586e6aa}, ! Version UUID
  1366306895,                             ! Creation Timestamp
  1366306895,                             ! Version Timestamp
  {cf7b2f79-ea9f-4d2e-8f7b-41256c3dfdbc}; ! Name of Object 1

