
OS:Version,
  {76df3817-3e9d-48ab-96be-9400af2c516a}, ! Handle
  0.9.3;                                  ! Version Identifier

OS:SizingPeriod:DesignDay,
  {e8b932d0-1281-4509-8367-ef33049dc769}, ! Handle
  Webster City Ann Clg 2% Condns DP=>MDB, ! Name
  28.8,                                   ! Maximum Dry-Bulb Temperature {C}
  11,                                     ! Daily Dry-Bulb Temperature Range {deltaC}
  23.8,                                   ! Humidity Indicating Conditions at Maximum Dry-Bulb {BasedOnField A3}
  97283,                                  ! Barometric Pressure {Pa}
  5.8,                                    ! Wind Speed {m/s}
  200,                                    ! Wind Direction {deg}
  0,                                      ! Sky Clearness
  0,                                      ! Rain Indicator
  0,                                      ! Snow Indicator
  21,                                     ! Day of Month
  7,                                      ! Month
  SummerDesignDay,                        ! Day Type
  0,                                      ! Daylight Saving Time Indicator
  Dewpoint,                               ! Humidity Indicating Type
  ,                                       ! Humidity Indicating Day Schedule Name
  DefaultMultipliers,                     ! Dry-Bulb Temperature Range Modifier Type
  ,                                       ! Dry-Bulb Temperature Range Modifier Schedule Name
  ASHRAETau,                              ! Solar Model Indicator
  ,                                       ! Beam Solar Day Schedule Name
  ,                                       ! Diffuse Solar Day Schedule Name
  0.412,                                  ! ASHRAE Taub {dimensionless}
  2.206;                                  ! ASHRAE Taud {dimensionless}

OS:ComponentData,
  {51641775-4c16-4bc1-a466-9cec9a1202dc}, ! Handle
  Component Data 1,                       ! Name
  {73834372-b017-4456-b57e-6b9bbb4e8cb2}, ! UUID
  {fae365b8-a7ad-46e6-8446-c39aeb37b70b}, ! Version UUID
  1366307259,                             ! Creation Timestamp
  1366307259,                             ! Version Timestamp
  {e8b932d0-1281-4509-8367-ef33049dc769}; ! Name of Object 1

