
OS:Version,
  {b6b54198-27f9-4f94-b98d-12f072d5b5ec}, ! Handle
  0.9.3;                                  ! Version Identifier

OS:SizingPeriod:DesignDay,
  {9307dafb-987d-4aaf-aeb0-4615ea541cba}, ! Handle
  TOPEKA Ann Hum_n 99% Condns DP=>MCDB,   ! Name
  -13,                                    ! Maximum Dry-Bulb Temperature {C}
  0,                                      ! Daily Dry-Bulb Temperature Range {deltaC}
  -19.3,                                  ! Humidity Indicating Conditions at Maximum Dry-Bulb {BasedOnField A3}
  98123,                                  ! Barometric Pressure {Pa}
  3.6,                                    ! Wind Speed {m/s}
  320,                                    ! Wind Direction {deg}
  0,                                      ! Sky Clearness
  0,                                      ! Rain Indicator
  0,                                      ! Snow Indicator
  21,                                     ! Day of Month
  1,                                      ! Month
  WinterDesignDay,                        ! Day Type
  0,                                      ! Daylight Saving Time Indicator
  Dewpoint,                               ! Humidity Indicating Type
  ,                                       ! Humidity Indicating Day Schedule Name
  DefaultMultipliers,                     ! Dry-Bulb Temperature Range Modifier Type
  ,                                       ! Dry-Bulb Temperature Range Modifier Schedule Name
  ASHRAEClearSky;                         ! Solar Model Indicator

OS:ComponentData,
  {9b1ae08a-4f40-4e08-bd6a-0b2d81adb971}, ! Handle
  Component Data 1,                       ! Name
  {b9dd48b6-63d0-4669-baf7-f031c6aa133c}, ! UUID
  {8095f530-4b8d-4796-aa85-f52ff2e2848b}, ! Version UUID
  1366307591,                             ! Creation Timestamp
  1366307591,                             ! Version Timestamp
  {9307dafb-987d-4aaf-aeb0-4615ea541cba}; ! Name of Object 1

