
OS:Version,
  {ad208cfa-d956-4ad0-9fbb-91928f96754e}, ! Handle
  0.9.3;                                  ! Version Identifier

OS:SizingPeriod:DesignDay,
  {8716cc70-fa9c-4bb4-90af-ff01d544364a}, ! Handle
  Muskegon County Arpt Ann Hum_n 99% Condns DP=>MCDB, ! Name
  -12.2,                                  ! Maximum Dry-Bulb Temperature {C}
  0,                                      ! Daily Dry-Bulb Temperature Range {deltaC}
  -16.9,                                  ! Humidity Indicating Conditions at Maximum Dry-Bulb {BasedOnField A3}
  99063,                                  ! Barometric Pressure {Pa}
  4.5,                                    ! Wind Speed {m/s}
  310,                                    ! Wind Direction {deg}
  0,                                      ! Sky Clearness
  0,                                      ! Rain Indicator
  0,                                      ! Snow Indicator
  21,                                     ! Day of Month
  1,                                      ! Month
  WinterDesignDay,                        ! Day Type
  0,                                      ! Daylight Saving Time Indicator
  Dewpoint,                               ! Humidity Indicating Type
  ,                                       ! Humidity Indicating Day Schedule Name
  DefaultMultipliers,                     ! Dry-Bulb Temperature Range Modifier Type
  ,                                       ! Dry-Bulb Temperature Range Modifier Schedule Name
  ASHRAEClearSky;                         ! Solar Model Indicator

OS:ComponentData,
  {3b5abe48-f8c0-411d-8eaa-a6099f49f011}, ! Handle
  Component Data 1,                       ! Name
  {5a25d0b4-1b20-4f95-b800-140efe38a4ca}, ! UUID
  {c3d5bbf5-ee3a-4f2b-87f5-5aebdeaf7e62}, ! Version UUID
  1366308075,                             ! Creation Timestamp
  1366308075,                             ! Version Timestamp
  {8716cc70-fa9c-4bb4-90af-ff01d544364a}; ! Name of Object 1

