
OS:Version,
  {8917ee80-28f3-42e4-8c03-75fcd28f9ae1}, ! Handle
  0.9.3;                                  ! Version Identifier

OS:SizingPeriod:DesignDay,
  {bbf71993-0c5e-4355-9049-738e297680b1}, ! Handle
  San Diego North Island Nas Ann Clg 2% Condns WB=>MDB, ! Name
  23.9,                                   ! Maximum Dry-Bulb Temperature {C}
  4.4,                                    ! Daily Dry-Bulb Temperature Range {deltaC}
  20.6,                                   ! Humidity Indicating Conditions at Maximum Dry-Bulb {BasedOnField A3}
  101145,                                 ! Barometric Pressure {Pa}
  3.9,                                    ! Wind Speed {m/s}
  310,                                    ! Wind Direction {deg}
  0,                                      ! Sky Clearness
  0,                                      ! Rain Indicator
  0,                                      ! Snow Indicator
  21,                                     ! Day of Month
  8,                                      ! Month
  SummerDesignDay,                        ! Day Type
  0,                                      ! Daylight Saving Time Indicator
  Wetbulb,                                ! Humidity Indicating Type
  ,                                       ! Humidity Indicating Day Schedule Name
  DefaultMultipliers,                     ! Dry-Bulb Temperature Range Modifier Type
  ,                                       ! Dry-Bulb Temperature Range Modifier Schedule Name
  ASHRAETau,                              ! Solar Model Indicator
  ,                                       ! Beam Solar Day Schedule Name
  ,                                       ! Diffuse Solar Day Schedule Name
  0.425,                                  ! ASHRAE Taub {dimensionless}
  2.218;                                  ! ASHRAE Taud {dimensionless}

OS:ComponentData,
  {5775f525-26b0-4edd-994f-1b3a39fa331d}, ! Handle
  Component Data 1,                       ! Name
  {9a24a1ae-aaf5-406b-b65a-54842d2e39b3}, ! UUID
  {7815613c-7e74-44bc-8fb2-46bde47aef01}, ! Version UUID
  1366306583,                             ! Creation Timestamp
  1366306583,                             ! Version Timestamp
  {bbf71993-0c5e-4355-9049-738e297680b1}; ! Name of Object 1

