
OS:Version,
  {50527bae-b6b7-4aad-ba2a-506fff5bd2c7}, ! Handle
  0.9.3;                                  ! Version Identifier

OS:SizingPeriod:DesignDay,
  {6fe72ed7-f640-490b-944d-8579298a73c5}, ! Handle
  Portland Intl Jetport Ann Clg 2% Condns DP=>MDB, ! Name
  23.5,                                   ! Maximum Dry-Bulb Temperature {C}
  10,                                     ! Daily Dry-Bulb Temperature Range {deltaC}
  19.8,                                   ! Humidity Indicating Conditions at Maximum Dry-Bulb {BasedOnField A3}
  101157,                                 ! Barometric Pressure {Pa}
  4.9,                                    ! Wind Speed {m/s}
  260,                                    ! Wind Direction {deg}
  0,                                      ! Sky Clearness
  0,                                      ! Rain Indicator
  0,                                      ! Snow Indicator
  21,                                     ! Day of Month
  7,                                      ! Month
  SummerDesignDay,                        ! Day Type
  0,                                      ! Daylight Saving Time Indicator
  Dewpoint,                               ! Humidity Indicating Type
  ,                                       ! Humidity Indicating Day Schedule Name
  DefaultMultipliers,                     ! Dry-Bulb Temperature Range Modifier Type
  ,                                       ! Dry-Bulb Temperature Range Modifier Schedule Name
  ASHRAETau,                              ! Solar Model Indicator
  ,                                       ! Beam Solar Day Schedule Name
  ,                                       ! Diffuse Solar Day Schedule Name
  0.477,                                  ! ASHRAE Taub {dimensionless}
  1.97;                                   ! ASHRAE Taud {dimensionless}

OS:ComponentData,
  {146523cf-ad42-44a1-9c04-1cbfd3797453}, ! Handle
  Component Data 1,                       ! Name
  {35a04ecd-2ee7-4f08-8de3-ce9387e76c8c}, ! UUID
  {d55488f0-b50b-4cc7-9290-1d3567c11a35}, ! Version UUID
  1366307915,                             ! Creation Timestamp
  1366307915,                             ! Version Timestamp
  {6fe72ed7-f640-490b-944d-8579298a73c5}; ! Name of Object 1

