
OS:Version,
  {e9f070f4-6397-4df5-ae1a-afafad98f3e1}, ! Handle
  0.9.3;                                  ! Version Identifier

OS:SizingPeriod:DesignDay,
  {8f923265-1f9d-448e-bd37-815c8e3d4a10}, ! Handle
  MUSKEGON Ann Clg .4% Condns Enth=>MDB,  ! Name
  28.2,                                   ! Maximum Dry-Bulb Temperature {C}
  10,                                     ! Daily Dry-Bulb Temperature Range {deltaC}
  74000,                                  ! Humidity Indicating Conditions at Maximum Dry-Bulb {BasedOnField A3}
  99051,                                  ! Barometric Pressure {Pa}
  5.4,                                    ! Wind Speed {m/s}
  200,                                    ! Wind Direction {deg}
  0,                                      ! Sky Clearness
  0,                                      ! Rain Indicator
  0,                                      ! Snow Indicator
  21,                                     ! Day of Month
  7,                                      ! Month
  SummerDesignDay,                        ! Day Type
  0,                                      ! Daylight Saving Time Indicator
  Enthalpy,                               ! Humidity Indicating Type
  ,                                       ! Humidity Indicating Day Schedule Name
  DefaultMultipliers,                     ! Dry-Bulb Temperature Range Modifier Type
  ,                                       ! Dry-Bulb Temperature Range Modifier Schedule Name
  ASHRAETau,                              ! Solar Model Indicator
  ,                                       ! Beam Solar Day Schedule Name
  ,                                       ! Diffuse Solar Day Schedule Name
  0.436,                                  ! ASHRAE Taub {dimensionless}
  2.131;                                  ! ASHRAE Taud {dimensionless}

OS:ComponentData,
  {11d94bad-e9a6-4255-86b5-d9a6e37bd573}, ! Handle
  Component Data 1,                       ! Name
  {39aa51f0-3694-4492-b4ce-1ad49ecc84fb}, ! UUID
  {98de57e7-efb3-462f-94da-325e8572dc32}, ! Version UUID
  1366308073,                             ! Creation Timestamp
  1366308073,                             ! Version Timestamp
  {8f923265-1f9d-448e-bd37-815c8e3d4a10}; ! Name of Object 1

