
OS:Version,
  {3c60bb64-8a6c-4037-b412-521a844aa795}, ! Handle
  0.9.3;                                  ! Version Identifier

OS:SizingPeriod:DesignDay,
  {49efa3e9-6716-4653-a7c1-f31f830f4db0}, ! Handle
  Wichita Mid Continent Ap Ann Clg 1% Condns DB=>MWB, ! Name
  36.2,                                   ! Maximum Dry-Bulb Temperature {C}
  12.1,                                   ! Daily Dry-Bulb Temperature Range {deltaC}
  23,                                     ! Humidity Indicating Conditions at Maximum Dry-Bulb {BasedOnField A3}
  96588,                                  ! Barometric Pressure {Pa}
  7.1,                                    ! Wind Speed {m/s}
  190,                                    ! Wind Direction {deg}
  0,                                      ! Sky Clearness
  0,                                      ! Rain Indicator
  0,                                      ! Snow Indicator
  21,                                     ! Day of Month
  7,                                      ! Month
  SummerDesignDay,                        ! Day Type
  0,                                      ! Daylight Saving Time Indicator
  Wetbulb,                                ! Humidity Indicating Type
  ,                                       ! Humidity Indicating Day Schedule Name
  DefaultMultipliers,                     ! Dry-Bulb Temperature Range Modifier Type
  ,                                       ! Dry-Bulb Temperature Range Modifier Schedule Name
  ASHRAETau,                              ! Solar Model Indicator
  ,                                       ! Beam Solar Day Schedule Name
  ,                                       ! Diffuse Solar Day Schedule Name
  0.419,                                  ! ASHRAE Taub {dimensionless}
  2.207;                                  ! ASHRAE Taud {dimensionless}

OS:ComponentData,
  {902a155d-5b80-41c7-b4b7-364cf085fd82}, ! Handle
  Component Data 1,                       ! Name
  {8104a1eb-59db-4e92-99f8-b4b530c7609b}, ! UUID
  {f8f4ac77-bba6-4ec0-b32a-c942660a98c9}, ! Version UUID
  1366307603,                             ! Creation Timestamp
  1366307603,                             ! Version Timestamp
  {49efa3e9-6716-4653-a7c1-f31f830f4db0}; ! Name of Object 1

