
OS:Version,
  {a47a9c41-3471-475b-bca4-7076c6d0ce5b}, ! Handle
  0.9.3;                                  ! Version Identifier

OS:SizingPeriod:DesignDay,
  {e3e8bc3d-c311-49f6-9cc2-ea5a2786b08a}, ! Handle
  Natchez Hardy Awos Ann Clg 1% Condns DB=>MWB, ! Name
  32.9,                                   ! Maximum Dry-Bulb Temperature {C}
  9.7,                                    ! Daily Dry-Bulb Temperature Range {deltaC}
  24.8,                                   ! Humidity Indicating Conditions at Maximum Dry-Bulb {BasedOnField A3}
  100332,                                 ! Barometric Pressure {Pa}
  2.6,                                    ! Wind Speed {m/s}
  240,                                    ! Wind Direction {deg}
  0,                                      ! Sky Clearness
  0,                                      ! Rain Indicator
  0,                                      ! Snow Indicator
  21,                                     ! Day of Month
  7,                                      ! Month
  SummerDesignDay,                        ! Day Type
  0,                                      ! Daylight Saving Time Indicator
  Wetbulb,                                ! Humidity Indicating Type
  ,                                       ! Humidity Indicating Day Schedule Name
  DefaultMultipliers,                     ! Dry-Bulb Temperature Range Modifier Type
  ,                                       ! Dry-Bulb Temperature Range Modifier Schedule Name
  ASHRAETau,                              ! Solar Model Indicator
  ,                                       ! Beam Solar Day Schedule Name
  ,                                       ! Diffuse Solar Day Schedule Name
  0.519,                                  ! ASHRAE Taub {dimensionless}
  1.903;                                  ! ASHRAE Taud {dimensionless}

OS:ComponentData,
  {d906dff1-55eb-4c72-a5dd-8b776d27ac69}, ! Handle
  Component Data 1,                       ! Name
  {f66d4b82-3fa0-4a35-98b2-1be9db80d874}, ! UUID
  {6b296095-5b0e-442c-9fbd-3ad2a87860ea}, ! Version UUID
  1366308685,                             ! Creation Timestamp
  1366308685,                             ! Version Timestamp
  {e3e8bc3d-c311-49f6-9cc2-ea5a2786b08a}; ! Name of Object 1

