
OS:Version,
  {4bf92d27-66b4-45a6-8b18-f8735bf0b9fa}, ! Handle
  0.9.3;                                  ! Version Identifier

OS:SizingPeriod:DesignDay,
  {57c449b9-1474-42cf-b2ae-f655911deac5}, ! Handle
  Rochester Ann Htg Wind 99.6% Condns WS=>MCDB, ! Name
  -3.1,                                   ! Maximum Dry-Bulb Temperature {C}
  0,                                      ! Daily Dry-Bulb Temperature Range {deltaC}
  -3.1,                                   ! Humidity Indicating Conditions at Maximum Dry-Bulb {BasedOnField A3}
  99311,                                  ! Barometric Pressure {Pa}
  13.5,                                   ! Wind Speed {m/s}
  240,                                    ! Wind Direction {deg}
  0,                                      ! Sky Clearness
  0,                                      ! Rain Indicator
  0,                                      ! Snow Indicator
  21,                                     ! Day of Month
  1,                                      ! Month
  WinterDesignDay,                        ! Day Type
  0,                                      ! Daylight Saving Time Indicator
  Wetbulb,                                ! Humidity Indicating Type
  ,                                       ! Humidity Indicating Day Schedule Name
  DefaultMultipliers,                     ! Dry-Bulb Temperature Range Modifier Type
  ,                                       ! Dry-Bulb Temperature Range Modifier Schedule Name
  ASHRAEClearSky;                         ! Solar Model Indicator

OS:ComponentData,
  {c6dfe750-f421-42e0-8b51-e93dd020ef11}, ! Handle
  Component Data 1,                       ! Name
  {1110c1f6-f9b5-4c68-a17a-cbd18e3e101c}, ! UUID
  {b8f09d8c-120c-4ff6-8f4e-aaad0fe33d0e}, ! Version UUID
  1366309713,                             ! Creation Timestamp
  1366309713,                             ! Version Timestamp
  {57c449b9-1474-42cf-b2ae-f655911deac5}; ! Name of Object 1

