
OS:Version,
  {d0ba6eef-c58e-4fc3-8ca5-1a46ccc2ac45}, ! Handle
  0.9.3;                                  ! Version Identifier

OS:SizingPeriod:DesignDay,
  {9b3c74bb-cecc-4065-a050-96d077156353}, ! Handle
  Marshfield Muni Ann Clg 2% Condns Enth=>MDB, ! Name
  26.3,                                   ! Maximum Dry-Bulb Temperature {C}
  11.2,                                   ! Daily Dry-Bulb Temperature Range {deltaC}
  66000,                                  ! Humidity Indicating Conditions at Maximum Dry-Bulb {BasedOnField A3}
  96738,                                  ! Barometric Pressure {Pa}
  4.2,                                    ! Wind Speed {m/s}
  190,                                    ! Wind Direction {deg}
  0,                                      ! Sky Clearness
  0,                                      ! Rain Indicator
  0,                                      ! Snow Indicator
  21,                                     ! Day of Month
  7,                                      ! Month
  SummerDesignDay,                        ! Day Type
  0,                                      ! Daylight Saving Time Indicator
  Enthalpy,                               ! Humidity Indicating Type
  ,                                       ! Humidity Indicating Day Schedule Name
  DefaultMultipliers,                     ! Dry-Bulb Temperature Range Modifier Type
  ,                                       ! Dry-Bulb Temperature Range Modifier Schedule Name
  ASHRAETau,                              ! Solar Model Indicator
  ,                                       ! Beam Solar Day Schedule Name
  ,                                       ! Diffuse Solar Day Schedule Name
  0.412,                                  ! ASHRAE Taub {dimensionless}
  2.17;                                   ! ASHRAE Taud {dimensionless}

OS:ComponentData,
  {5f3a1622-9518-49c8-b166-3219f525c95d}, ! Handle
  Component Data 1,                       ! Name
  {9b3ba227-6b78-406d-a260-b50f3a37ad9e}, ! UUID
  {24bbd04c-46d0-4032-97c9-ee082938f9c9}, ! Version UUID
  1366311544,                             ! Creation Timestamp
  1366311544,                             ! Version Timestamp
  {9b3c74bb-cecc-4065-a050-96d077156353}; ! Name of Object 1

