
OS:Version,
  {0787c966-281a-4ab0-bbb7-110ffab31cd2}, ! Handle
  0.9.3;                                  ! Version Identifier

OS:SizingPeriod:DesignDay,
  {191c7218-ec4f-4f98-89b8-afd21acb9b3c}, ! Handle
  Rockport Aransas Co Ann Clg 2% Condns DB=>MWB, ! Name
  32.6,                                   ! Maximum Dry-Bulb Temperature {C}
  7.1,                                    ! Daily Dry-Bulb Temperature Range {deltaC}
  26.2,                                   ! Humidity Indicating Conditions at Maximum Dry-Bulb {BasedOnField A3}
  101229,                                 ! Barometric Pressure {Pa}
  5.3,                                    ! Wind Speed {m/s}
  130,                                    ! Wind Direction {deg}
  0,                                      ! Sky Clearness
  0,                                      ! Rain Indicator
  0,                                      ! Snow Indicator
  21,                                     ! Day of Month
  8,                                      ! Month
  SummerDesignDay,                        ! Day Type
  0,                                      ! Daylight Saving Time Indicator
  Wetbulb,                                ! Humidity Indicating Type
  ,                                       ! Humidity Indicating Day Schedule Name
  DefaultMultipliers,                     ! Dry-Bulb Temperature Range Modifier Type
  ,                                       ! Dry-Bulb Temperature Range Modifier Schedule Name
  ASHRAETau,                              ! Solar Model Indicator
  ,                                       ! Beam Solar Day Schedule Name
  ,                                       ! Diffuse Solar Day Schedule Name
  0.47,                                   ! ASHRAE Taub {dimensionless}
  2.095;                                  ! ASHRAE Taud {dimensionless}

OS:ComponentData,
  {b5a211ed-8b29-4a58-971a-9dde5e5db97e}, ! Handle
  Component Data 1,                       ! Name
  {039f1ca4-aa8b-4a10-a963-56402740cd9e}, ! UUID
  {7c7eb23a-da02-4bd2-9a26-e801d6309027}, ! Version UUID
  1366310864,                             ! Creation Timestamp
  1366310864,                             ! Version Timestamp
  {191c7218-ec4f-4f98-89b8-afd21acb9b3c}; ! Name of Object 1

