
OS:Version,
  {823e0f2f-bb7b-4795-b831-5f8ea1fad852}, ! Handle
  0.9.3;                                  ! Version Identifier

OS:SizingPeriod:DesignDay,
  {b38dbfc4-9525-4514-8b97-8d9723284387}, ! Handle
  Trinidad Las Animas County Ap Ann Clg 1% Condns DP=>MDB, ! Name
  20.3,                                   ! Maximum Dry-Bulb Temperature {C}
  15.6,                                   ! Daily Dry-Bulb Temperature Range {deltaC}
  14.6,                                   ! Humidity Indicating Conditions at Maximum Dry-Bulb {BasedOnField A3}
  81984,                                  ! Barometric Pressure {Pa}
  4.7,                                    ! Wind Speed {m/s}
  180,                                    ! Wind Direction {deg}
  0,                                      ! Sky Clearness
  0,                                      ! Rain Indicator
  0,                                      ! Snow Indicator
  21,                                     ! Day of Month
  7,                                      ! Month
  SummerDesignDay,                        ! Day Type
  0,                                      ! Daylight Saving Time Indicator
  Dewpoint,                               ! Humidity Indicating Type
  ,                                       ! Humidity Indicating Day Schedule Name
  DefaultMultipliers,                     ! Dry-Bulb Temperature Range Modifier Type
  ,                                       ! Dry-Bulb Temperature Range Modifier Schedule Name
  ASHRAETau,                              ! Solar Model Indicator
  ,                                       ! Beam Solar Day Schedule Name
  ,                                       ! Diffuse Solar Day Schedule Name
  0.396,                                  ! ASHRAE Taub {dimensionless}
  2.111;                                  ! ASHRAE Taud {dimensionless}

OS:ComponentData,
  {e9a53918-b927-47e8-8b67-4de64b15ae05}, ! Handle
  Component Data 1,                       ! Name
  {8fe193bd-faa4-4524-a48b-6e066f555bcc}, ! UUID
  {03e5329a-29a8-4cb0-b70a-7e14736483dc}, ! Version UUID
  1366306744,                             ! Creation Timestamp
  1366306744,                             ! Version Timestamp
  {b38dbfc4-9525-4514-8b97-8d9723284387}; ! Name of Object 1

