
OS:Version,
  {3a4c611f-7034-4c08-b7bd-7784edd09439}, ! Handle
  0.9.3;                                  ! Version Identifier

OS:SizingPeriod:DesignDay,
  {abf3f8fb-768f-4cac-a7b3-d9d594b222a6}, ! Handle
  North Bend Ann Clg 1% Condns WB=>MDB,   ! Name
  19.5,                                   ! Maximum Dry-Bulb Temperature {C}
  7.3,                                    ! Daily Dry-Bulb Temperature Range {deltaC}
  16.2,                                   ! Humidity Indicating Conditions at Maximum Dry-Bulb {BasedOnField A3}
  101277,                                 ! Barometric Pressure {Pa}
  6.1,                                    ! Wind Speed {m/s}
  330,                                    ! Wind Direction {deg}
  0,                                      ! Sky Clearness
  0,                                      ! Rain Indicator
  0,                                      ! Snow Indicator
  21,                                     ! Day of Month
  8,                                      ! Month
  SummerDesignDay,                        ! Day Type
  0,                                      ! Daylight Saving Time Indicator
  Wetbulb,                                ! Humidity Indicating Type
  ,                                       ! Humidity Indicating Day Schedule Name
  DefaultMultipliers,                     ! Dry-Bulb Temperature Range Modifier Type
  ,                                       ! Dry-Bulb Temperature Range Modifier Schedule Name
  ASHRAETau,                              ! Solar Model Indicator
  ,                                       ! Beam Solar Day Schedule Name
  ,                                       ! Diffuse Solar Day Schedule Name
  0.348,                                  ! ASHRAE Taub {dimensionless}
  2.638;                                  ! ASHRAE Taud {dimensionless}

OS:ComponentData,
  {e5ed7974-ccf3-47a7-9cbd-dcd1fdf7f1be}, ! Handle
  Component Data 1,                       ! Name
  {e972a464-8bee-4728-bce3-d41b6812c0cd}, ! UUID
  {634401bf-dd75-4190-90e4-15cef17d125b}, ! Version UUID
  1366310050,                             ! Creation Timestamp
  1366310050,                             ! Version Timestamp
  {abf3f8fb-768f-4cac-a7b3-d9d594b222a6}; ! Name of Object 1

