
OS:Version,
  {8df8f236-50e2-489b-b398-b5111c2d2d67}, ! Handle
  0.9.3;                                  ! Version Identifier

OS:SizingPeriod:DesignDay,
  {7abe957e-aff3-4a44-be4f-7828f523ef31}, ! Handle
  Roanoke Ann Htg 99.6% Condns DB,        ! Name
  -9.9,                                   ! Maximum Dry-Bulb Temperature {C}
  0,                                      ! Daily Dry-Bulb Temperature Range {deltaC}
  -9.9,                                   ! Humidity Indicating Conditions at Maximum Dry-Bulb {BasedOnField A3}
  97098,                                  ! Barometric Pressure {Pa}
  3.9,                                    ! Wind Speed {m/s}
  300,                                    ! Wind Direction {deg}
  0,                                      ! Sky Clearness
  0,                                      ! Rain Indicator
  0,                                      ! Snow Indicator
  21,                                     ! Day of Month
  1,                                      ! Month
  WinterDesignDay,                        ! Day Type
  0,                                      ! Daylight Saving Time Indicator
  Wetbulb,                                ! Humidity Indicating Type
  ,                                       ! Humidity Indicating Day Schedule Name
  DefaultMultipliers,                     ! Dry-Bulb Temperature Range Modifier Type
  ,                                       ! Dry-Bulb Temperature Range Modifier Schedule Name
  ASHRAEClearSky;                         ! Solar Model Indicator

OS:ComponentData,
  {3598723c-14d5-43ad-9912-3e45333705a5}, ! Handle
  Component Data 1,                       ! Name
  {6258ab1a-3a3b-4914-9c91-71d5a1dd84d3}, ! UUID
  {9715d45e-01ab-464a-9b3f-25ce40c7f79c}, ! Version UUID
  1366311184,                             ! Creation Timestamp
  1366311184,                             ! Version Timestamp
  {7abe957e-aff3-4a44-be4f-7828f523ef31}; ! Name of Object 1

