
OS:Version,
  {fcbed169-dcd5-43e0-8285-f9a220c8ac14}, ! Handle
  0.9.3;                                  ! Version Identifier

OS:SizingPeriod:DesignDay,
  {6d8e4437-180b-4472-8225-8a3f409df008}, ! Handle
  Quillayute State Airport Ann Clg 1% Condns DP=>MDB, ! Name
  17.9,                                   ! Maximum Dry-Bulb Temperature {C}
  9.8,                                    ! Daily Dry-Bulb Temperature Range {deltaC}
  15.2,                                   ! Humidity Indicating Conditions at Maximum Dry-Bulb {BasedOnField A3}
  100666,                                 ! Barometric Pressure {Pa}
  3.7,                                    ! Wind Speed {m/s}
  240,                                    ! Wind Direction {deg}
  0,                                      ! Sky Clearness
  0,                                      ! Rain Indicator
  0,                                      ! Snow Indicator
  21,                                     ! Day of Month
  8,                                      ! Month
  SummerDesignDay,                        ! Day Type
  0,                                      ! Daylight Saving Time Indicator
  Dewpoint,                               ! Humidity Indicating Type
  ,                                       ! Humidity Indicating Day Schedule Name
  DefaultMultipliers,                     ! Dry-Bulb Temperature Range Modifier Type
  ,                                       ! Dry-Bulb Temperature Range Modifier Schedule Name
  ASHRAETau,                              ! Solar Model Indicator
  ,                                       ! Beam Solar Day Schedule Name
  ,                                       ! Diffuse Solar Day Schedule Name
  0.351,                                  ! ASHRAE Taub {dimensionless}
  2.578;                                  ! ASHRAE Taud {dimensionless}

OS:ComponentData,
  {034c7f95-d44e-4142-81ff-c4395668f8fc}, ! Handle
  Component Data 1,                       ! Name
  {781cd71b-49a8-42fd-8773-35e500ce53b0}, ! UUID
  {6a28129d-69e4-4ace-899d-f353fa2aab4b}, ! Version UUID
  1366311342,                             ! Creation Timestamp
  1366311342,                             ! Version Timestamp
  {6d8e4437-180b-4472-8225-8a3f409df008}; ! Name of Object 1

