
OS:Version,
  {af695631-08fc-4859-8479-f9b7c16cfa04}, ! Handle
  0.9.3;                                  ! Version Identifier

OS:SizingPeriod:DesignDay,
  {1f4bcdb0-5b9b-450b-9d5e-9f04313ac07b}, ! Handle
  Pocatello Regional Ap Ann Clg 2% Condns DP=>MDB, ! Name
  21.1,                                   ! Maximum Dry-Bulb Temperature {C}
  18.7,                                   ! Daily Dry-Bulb Temperature Range {deltaC}
  12.2,                                   ! Humidity Indicating Conditions at Maximum Dry-Bulb {BasedOnField A3}
  86092,                                  ! Barometric Pressure {Pa}
  4.8,                                    ! Wind Speed {m/s}
  240,                                    ! Wind Direction {deg}
  0,                                      ! Sky Clearness
  0,                                      ! Rain Indicator
  0,                                      ! Snow Indicator
  21,                                     ! Day of Month
  7,                                      ! Month
  SummerDesignDay,                        ! Day Type
  0,                                      ! Daylight Saving Time Indicator
  Dewpoint,                               ! Humidity Indicating Type
  ,                                       ! Humidity Indicating Day Schedule Name
  DefaultMultipliers,                     ! Dry-Bulb Temperature Range Modifier Type
  ,                                       ! Dry-Bulb Temperature Range Modifier Schedule Name
  ASHRAETau,                              ! Solar Model Indicator
  ,                                       ! Beam Solar Day Schedule Name
  ,                                       ! Diffuse Solar Day Schedule Name
  0.416,                                  ! ASHRAE Taub {dimensionless}
  2.003;                                  ! ASHRAE Taud {dimensionless}

OS:ComponentData,
  {920cc43f-3611-4cd8-a908-195c23da1a9d}, ! Handle
  Component Data 1,                       ! Name
  {5de641e0-9a61-4ed6-876b-53e16b65e559}, ! UUID
  {c1e1ba85-4cb6-4e3e-ac03-5113ec7df131}, ! Version UUID
  1366307308,                             ! Creation Timestamp
  1366307308,                             ! Version Timestamp
  {1f4bcdb0-5b9b-450b-9d5e-9f04313ac07b}; ! Name of Object 1

