
OS:Version,
  {0315476a-8782-48f6-b61e-d0512a44ea88}, ! Handle
  0.9.3;                                  ! Version Identifier

OS:SizingPeriod:DesignDay,
  {64a2c45c-e076-4682-9a07-c7da5b095635}, ! Handle
  Sandberg Ann Hum_n 99% Condns DP=>MCDB, ! Name
  6.4,                                    ! Maximum Dry-Bulb Temperature {C}
  0,                                      ! Daily Dry-Bulb Temperature Range {deltaC}
  -17,                                    ! Humidity Indicating Conditions at Maximum Dry-Bulb {BasedOnField A3}
  85840,                                  ! Barometric Pressure {Pa}
  6.7,                                    ! Wind Speed {m/s}
  340,                                    ! Wind Direction {deg}
  0,                                      ! Sky Clearness
  0,                                      ! Rain Indicator
  0,                                      ! Snow Indicator
  21,                                     ! Day of Month
  12,                                     ! Month
  WinterDesignDay,                        ! Day Type
  0,                                      ! Daylight Saving Time Indicator
  Dewpoint,                               ! Humidity Indicating Type
  ,                                       ! Humidity Indicating Day Schedule Name
  DefaultMultipliers,                     ! Dry-Bulb Temperature Range Modifier Type
  ,                                       ! Dry-Bulb Temperature Range Modifier Schedule Name
  ASHRAEClearSky;                         ! Solar Model Indicator

OS:ComponentData,
  {9c57c633-ee07-43d9-8599-4faad7bbb83b}, ! Handle
  Component Data 1,                       ! Name
  {971df7a7-cb6a-462f-91d2-5b133d66c3bc}, ! UUID
  {9f02d83f-4659-4afb-833d-5b75a08a5dd5}, ! Version UUID
  1366306604,                             ! Creation Timestamp
  1366306604,                             ! Version Timestamp
  {64a2c45c-e076-4682-9a07-c7da5b095635}; ! Name of Object 1

