
OS:Version,
  {9cc2d16c-abf3-4f25-acf3-e8eeb391c529}, ! Handle
  0.9.3;                                  ! Version Identifier

OS:SizingPeriod:DesignDay,
  {676185c9-f647-4a5d-bf7c-b1fdaa59cbf6}, ! Handle
  Miles City Ann Clg 2% Condns DB=>MWB,   ! Name
  32.8,                                   ! Maximum Dry-Bulb Temperature {C}
  14.9,                                   ! Daily Dry-Bulb Temperature Range {deltaC}
  17.9,                                   ! Humidity Indicating Conditions at Maximum Dry-Bulb {BasedOnField A3}
  92065,                                  ! Barometric Pressure {Pa}
  4.7,                                    ! Wind Speed {m/s}
  140,                                    ! Wind Direction {deg}
  0,                                      ! Sky Clearness
  0,                                      ! Rain Indicator
  0,                                      ! Snow Indicator
  21,                                     ! Day of Month
  7,                                      ! Month
  SummerDesignDay,                        ! Day Type
  0,                                      ! Daylight Saving Time Indicator
  Wetbulb,                                ! Humidity Indicating Type
  ,                                       ! Humidity Indicating Day Schedule Name
  DefaultMultipliers,                     ! Dry-Bulb Temperature Range Modifier Type
  ,                                       ! Dry-Bulb Temperature Range Modifier Schedule Name
  ASHRAETau,                              ! Solar Model Indicator
  ,                                       ! Beam Solar Day Schedule Name
  ,                                       ! Diffuse Solar Day Schedule Name
  0.418,                                  ! ASHRAE Taub {dimensionless}
  2.061;                                  ! ASHRAE Taud {dimensionless}

