
OS:Version,
  {30d3ff8f-308d-44fe-ab0a-d1c6284ac65b}, ! Handle
  0.9.3;                                  ! Version Identifier

OS:SizingPeriod:DesignDay,
  {8fa5bb08-987a-43ca-a44b-a3f73b960fd3}, ! Handle
  Miles City Ann Clg 2% Condns DB=>MWB,   ! Name
  32.8,                                   ! Maximum Dry-Bulb Temperature {C}
  14.9,                                   ! Daily Dry-Bulb Temperature Range {deltaC}
  17.9,                                   ! Humidity Indicating Conditions at Maximum Dry-Bulb {BasedOnField A3}
  92065,                                  ! Barometric Pressure {Pa}
  4.7,                                    ! Wind Speed {m/s}
  140,                                    ! Wind Direction {deg}
  0,                                      ! Sky Clearness
  0,                                      ! Rain Indicator
  0,                                      ! Snow Indicator
  21,                                     ! Day of Month
  7,                                      ! Month
  SummerDesignDay,                        ! Day Type
  0,                                      ! Daylight Saving Time Indicator
  Wetbulb,                                ! Humidity Indicating Type
  ,                                       ! Humidity Indicating Day Schedule Name
  DefaultMultipliers,                     ! Dry-Bulb Temperature Range Modifier Type
  ,                                       ! Dry-Bulb Temperature Range Modifier Schedule Name
  ASHRAETau,                              ! Solar Model Indicator
  ,                                       ! Beam Solar Day Schedule Name
  ,                                       ! Diffuse Solar Day Schedule Name
  0.418,                                  ! ASHRAE Taub {dimensionless}
  2.061;                                  ! ASHRAE Taud {dimensionless}

OS:ComponentData,
  {512fb1c1-822c-440a-a261-27d2bc5a66ad}, ! Handle
  Component Data 1,                       ! Name
  {52310636-f068-405d-9c05-8b6a90242724}, ! UUID
  {2262dea3-2c97-4b09-b7a8-a596e9f20897}, ! Version UUID
  1366308832,                             ! Creation Timestamp
  1366308832,                             ! Version Timestamp
  {8fa5bb08-987a-43ca-a44b-a3f73b960fd3}; ! Name of Object 1

