
OS:Version,
  {267b677f-43aa-4869-bd47-66a0f490277c}, ! Handle
  0.9.3;                                  ! Version Identifier

OS:SizingPeriod:DesignDay,
  {d9726431-b6f6-4416-ae87-2bd4f49e9fa4}, ! Handle
  ROCKFORD Ann Clg .4% Condns DP=>MDB,    ! Name
  28.9,                                   ! Maximum Dry-Bulb Temperature {C}
  11,                                     ! Daily Dry-Bulb Temperature Range {deltaC}
  24.1,                                   ! Humidity Indicating Conditions at Maximum Dry-Bulb {BasedOnField A3}
  98698,                                  ! Barometric Pressure {Pa}
  5.3,                                    ! Wind Speed {m/s}
  210,                                    ! Wind Direction {deg}
  0,                                      ! Sky Clearness
  0,                                      ! Rain Indicator
  0,                                      ! Snow Indicator
  21,                                     ! Day of Month
  7,                                      ! Month
  SummerDesignDay,                        ! Day Type
  0,                                      ! Daylight Saving Time Indicator
  Dewpoint,                               ! Humidity Indicating Type
  ,                                       ! Humidity Indicating Day Schedule Name
  DefaultMultipliers,                     ! Dry-Bulb Temperature Range Modifier Type
  ,                                       ! Dry-Bulb Temperature Range Modifier Schedule Name
  ASHRAETau,                              ! Solar Model Indicator
  ,                                       ! Beam Solar Day Schedule Name
  ,                                       ! Diffuse Solar Day Schedule Name
  0.445,                                  ! ASHRAE Taub {dimensionless}
  2.082;                                  ! ASHRAE Taud {dimensionless}

OS:ComponentData,
  {038b03c1-b1d6-4c9a-aed4-e2dceedf5d89}, ! Handle
  Component Data 1,                       ! Name
  {6608f1d5-6807-4f41-9534-d4ca83d9d688}, ! UUID
  {d2c2065c-1782-43e6-aae3-be1b81bfe384}, ! Version UUID
  1366307397,                             ! Creation Timestamp
  1366307397,                             ! Version Timestamp
  {d9726431-b6f6-4416-ae87-2bd4f49e9fa4}; ! Name of Object 1

