
OS:Version,
  {e70de36c-24a6-4cc8-944b-5ac85266de8f}, ! Handle
  0.9.3;                                  ! Version Identifier

OS:SizingPeriod:DesignDay,
  {da79f21f-7bd5-4a3f-aa3b-d4869de0b850}, ! Handle
  Rhinelander Oneida Ann Htg 99% Condns DB, ! Name
  -22.4,                                  ! Maximum Dry-Bulb Temperature {C}
  0,                                      ! Daily Dry-Bulb Temperature Range {deltaC}
  -22.4,                                  ! Humidity Indicating Conditions at Maximum Dry-Bulb {BasedOnField A3}
  95381,                                  ! Barometric Pressure {Pa}
  2.6,                                    ! Wind Speed {m/s}
  260,                                    ! Wind Direction {deg}
  0,                                      ! Sky Clearness
  0,                                      ! Rain Indicator
  0,                                      ! Snow Indicator
  21,                                     ! Day of Month
  1,                                      ! Month
  WinterDesignDay,                        ! Day Type
  0,                                      ! Daylight Saving Time Indicator
  Wetbulb,                                ! Humidity Indicating Type
  ,                                       ! Humidity Indicating Day Schedule Name
  DefaultMultipliers,                     ! Dry-Bulb Temperature Range Modifier Type
  ,                                       ! Dry-Bulb Temperature Range Modifier Schedule Name
  ASHRAEClearSky;                         ! Solar Model Indicator

OS:ComponentData,
  {81ab4ca1-cd8e-4c23-9952-4ed8fbc95c59}, ! Handle
  Component Data 1,                       ! Name
  {ce22c320-9e8a-47b3-bc9e-d2293569168e}, ! UUID
  {f3c6fbb7-69eb-404e-8163-a971d3670000}, ! Version UUID
  1366308091,                             ! Creation Timestamp
  1366308091,                             ! Version Timestamp
  {da79f21f-7bd5-4a3f-aa3b-d4869de0b850}; ! Name of Object 1

