
OS:Version,
  {774613f7-36c6-4537-8fd2-876850ab0dca}, ! Handle
  0.9.3;                                  ! Version Identifier

OS:SizingPeriod:DesignDay,
  {1e54326b-c32b-42a1-930a-09e66397c2f6}, ! Handle
  Wrangell Ann Clg 2% Condns Enth=>MDB,   ! Name
  17.2,                                   ! Maximum Dry-Bulb Temperature {C}
  5.6,                                    ! Daily Dry-Bulb Temperature Range {deltaC}
  39600,                                  ! Humidity Indicating Conditions at Maximum Dry-Bulb {BasedOnField A3}
  101169,                                 ! Barometric Pressure {Pa}
  3.1,                                    ! Wind Speed {m/s}
  310,                                    ! Wind Direction {deg}
  0,                                      ! Sky Clearness
  0,                                      ! Rain Indicator
  0,                                      ! Snow Indicator
  21,                                     ! Day of Month
  7,                                      ! Month
  SummerDesignDay,                        ! Day Type
  0,                                      ! Daylight Saving Time Indicator
  Enthalpy,                               ! Humidity Indicating Type
  ,                                       ! Humidity Indicating Day Schedule Name
  DefaultMultipliers,                     ! Dry-Bulb Temperature Range Modifier Type
  ,                                       ! Dry-Bulb Temperature Range Modifier Schedule Name
  ASHRAETau,                              ! Solar Model Indicator
  ,                                       ! Beam Solar Day Schedule Name
  ,                                       ! Diffuse Solar Day Schedule Name
  0.394,                                  ! ASHRAE Taub {dimensionless}
  2.197;                                  ! ASHRAE Taud {dimensionless}

OS:ComponentData,
  {e52c6e94-ceb2-4a29-95d8-a5371fa2e6bd}, ! Handle
  Component Data 1,                       ! Name
  {7a36f53a-6ba0-4e77-8bfb-341463459b4c}, ! UUID
  {b00cb722-991c-4061-aa8d-c3f56264415b}, ! Version UUID
  1366305618,                             ! Creation Timestamp
  1366305618,                             ! Version Timestamp
  {1e54326b-c32b-42a1-930a-09e66397c2f6}; ! Name of Object 1

