
OS:Version,
  {1c3cee52-4c91-4c52-a4ce-020a9403beae}, ! Handle
  0.9.3;                                  ! Version Identifier

OS:SizingPeriod:DesignDay,
  {70968c41-03a0-463d-8dc2-220975e43a21}, ! Handle
  Mount Shasta Ann Htg Wind 99.6% Condns WS=>MCDB, ! Name
  2.8,                                    ! Maximum Dry-Bulb Temperature {C}
  0,                                      ! Daily Dry-Bulb Temperature Range {deltaC}
  2.8,                                    ! Humidity Indicating Conditions at Maximum Dry-Bulb {BasedOnField A3}
  89038,                                  ! Barometric Pressure {Pa}
  7,                                      ! Wind Speed {m/s}
  50,                                     ! Wind Direction {deg}
  0,                                      ! Sky Clearness
  0,                                      ! Rain Indicator
  0,                                      ! Snow Indicator
  21,                                     ! Day of Month
  12,                                     ! Month
  WinterDesignDay,                        ! Day Type
  0,                                      ! Daylight Saving Time Indicator
  Wetbulb,                                ! Humidity Indicating Type
  ,                                       ! Humidity Indicating Day Schedule Name
  DefaultMultipliers,                     ! Dry-Bulb Temperature Range Modifier Type
  ,                                       ! Dry-Bulb Temperature Range Modifier Schedule Name
  ASHRAEClearSky;                         ! Solar Model Indicator

OS:ComponentData,
  {500df391-8c0a-423a-8081-83933d6a836c}, ! Handle
  Component Data 1,                       ! Name
  {2c48ad2f-43c3-4763-8ea5-cbc5d9d0ea01}, ! UUID
  {9f746ce6-ae90-4141-8660-7cccea690623}, ! Version UUID
  1366306502,                             ! Creation Timestamp
  1366306502,                             ! Version Timestamp
  {70968c41-03a0-463d-8dc2-220975e43a21}; ! Name of Object 1

