
OS:Version,
  {324724cb-90db-4018-b829-ae7a9ffe4be7}, ! Handle
  0.9.3;                                  ! Version Identifier

OS:SizingPeriod:DesignDay,
  {db33554b-f350-4d4d-850e-56e8802bd106}, ! Handle
  Rochester Ann Clg 1% Condns DB=>MWB,    ! Name
  29.5,                                   ! Maximum Dry-Bulb Temperature {C}
  10.6,                                   ! Daily Dry-Bulb Temperature Range {deltaC}
  22.2,                                   ! Humidity Indicating Conditions at Maximum Dry-Bulb {BasedOnField A3}
  96588,                                  ! Barometric Pressure {Pa}
  6.7,                                    ! Wind Speed {m/s}
  200,                                    ! Wind Direction {deg}
  0,                                      ! Sky Clearness
  0,                                      ! Rain Indicator
  0,                                      ! Snow Indicator
  21,                                     ! Day of Month
  7,                                      ! Month
  SummerDesignDay,                        ! Day Type
  0,                                      ! Daylight Saving Time Indicator
  Wetbulb,                                ! Humidity Indicating Type
  ,                                       ! Humidity Indicating Day Schedule Name
  DefaultMultipliers,                     ! Dry-Bulb Temperature Range Modifier Type
  ,                                       ! Dry-Bulb Temperature Range Modifier Schedule Name
  ASHRAETau,                              ! Solar Model Indicator
  ,                                       ! Beam Solar Day Schedule Name
  ,                                       ! Diffuse Solar Day Schedule Name
  0.404,                                  ! ASHRAE Taub {dimensionless}
  2.226;                                  ! ASHRAE Taud {dimensionless}

OS:ComponentData,
  {2d44a6ac-c547-434a-ad03-8d4fd6675f9f}, ! Handle
  Component Data 1,                       ! Name
  {e93dbd97-4cfa-40c3-b87d-f97d2229b88a}, ! UUID
  {9e3f83e8-2f1c-4e81-9f9c-b1e8155aeb6b}, ! Version UUID
  1366308392,                             ! Creation Timestamp
  1366308392,                             ! Version Timestamp
  {db33554b-f350-4d4d-850e-56e8802bd106}; ! Name of Object 1

