
OS:Version,
  {cef110fa-eb82-4491-91c4-1786a25ef63a}, ! Handle
  0.9.3;                                  ! Version Identifier

OS:SizingPeriod:DesignDay,
  {8b748eb9-8874-4b6d-8b11-6525ce5460bc}, ! Handle
  Molokai  Amos Ann Clg .4% Condns WB=>MDB, ! Name
  28.4,                                   ! Maximum Dry-Bulb Temperature {C}
  7,                                      ! Daily Dry-Bulb Temperature Range {deltaC}
  24.4,                                   ! Humidity Indicating Conditions at Maximum Dry-Bulb {BasedOnField A3}
  99690,                                  ! Barometric Pressure {Pa}
  6.1,                                    ! Wind Speed {m/s}
  60,                                     ! Wind Direction {deg}
  0,                                      ! Sky Clearness
  0,                                      ! Rain Indicator
  0,                                      ! Snow Indicator
  21,                                     ! Day of Month
  8,                                      ! Month
  SummerDesignDay,                        ! Day Type
  0,                                      ! Daylight Saving Time Indicator
  Wetbulb,                                ! Humidity Indicating Type
  ,                                       ! Humidity Indicating Day Schedule Name
  DefaultMultipliers,                     ! Dry-Bulb Temperature Range Modifier Type
  ,                                       ! Dry-Bulb Temperature Range Modifier Schedule Name
  ASHRAETau,                              ! Solar Model Indicator
  ,                                       ! Beam Solar Day Schedule Name
  ,                                       ! Diffuse Solar Day Schedule Name
  0.373,                                  ! ASHRAE Taub {dimensionless}
  2.559;                                  ! ASHRAE Taud {dimensionless}

OS:ComponentData,
  {ded1ad2a-6007-4d5d-9a47-fd3bf5d81d77}, ! Handle
  Component Data 1,                       ! Name
  {a4780e95-e9b4-4c57-b629-9a83b06068b3}, ! UUID
  {806244c0-870f-45f7-a62d-d1512df16a7d}, ! Version UUID
  1366307129,                             ! Creation Timestamp
  1366307129,                             ! Version Timestamp
  {8b748eb9-8874-4b6d-8b11-6525ce5460bc}; ! Name of Object 1

