
OS:Version,
  {897a660f-098d-4eb7-bcc9-98be09a1586d}, ! Handle
  0.9.3;                                  ! Version Identifier

OS:SizingPeriod:DesignDay,
  {bcc7ba24-bb9d-4981-8914-bcf71957ae6b}, ! Handle
  Raleigh Durham International Ann Hum_n 99.6% Condns DP=>MCDB, ! Name
  -3.3,                                   ! Maximum Dry-Bulb Temperature {C}
  0,                                      ! Daily Dry-Bulb Temperature Range {deltaC}
  -17.3,                                  ! Humidity Indicating Conditions at Maximum Dry-Bulb {BasedOnField A3}
  99809,                                  ! Barometric Pressure {Pa}
  2.8,                                    ! Wind Speed {m/s}
  30,                                     ! Wind Direction {deg}
  0,                                      ! Sky Clearness
  0,                                      ! Rain Indicator
  0,                                      ! Snow Indicator
  21,                                     ! Day of Month
  1,                                      ! Month
  WinterDesignDay,                        ! Day Type
  0,                                      ! Daylight Saving Time Indicator
  Dewpoint,                               ! Humidity Indicating Type
  ,                                       ! Humidity Indicating Day Schedule Name
  DefaultMultipliers,                     ! Dry-Bulb Temperature Range Modifier Type
  ,                                       ! Dry-Bulb Temperature Range Modifier Schedule Name
  ASHRAEClearSky;                         ! Solar Model Indicator

OS:ComponentData,
  {f7127861-e6de-4c4c-a452-c9b3cb85b00e}, ! Handle
  Component Data 1,                       ! Name
  {2fe5fe38-b9a4-4837-8eac-21336c0490e6}, ! UUID
  {9c5f7084-af1e-4cd6-b113-5340d8f715f3}, ! Version UUID
  1366308973,                             ! Creation Timestamp
  1366308973,                             ! Version Timestamp
  {bcc7ba24-bb9d-4981-8914-bcf71957ae6b}; ! Name of Object 1

