
OS:Version,
  {c09cbbc0-4bc7-48de-90d1-37dd5069a743}, ! Handle
  0.9.3;                                  ! Version Identifier

OS:SizingPeriod:DesignDay,
  {d44e7997-9f48-4106-8d13-d72a88da9fee}, ! Handle
  Mcguire Afb Ann Clg .4% Condns DB=>MWB, ! Name
  33.8,                                   ! Maximum Dry-Bulb Temperature {C}
  10.6,                                   ! Daily Dry-Bulb Temperature Range {deltaC}
  24.3,                                   ! Humidity Indicating Conditions at Maximum Dry-Bulb {BasedOnField A3}
  100786,                                 ! Barometric Pressure {Pa}
  4,                                      ! Wind Speed {m/s}
  240,                                    ! Wind Direction {deg}
  0,                                      ! Sky Clearness
  0,                                      ! Rain Indicator
  0,                                      ! Snow Indicator
  21,                                     ! Day of Month
  7,                                      ! Month
  SummerDesignDay,                        ! Day Type
  0,                                      ! Daylight Saving Time Indicator
  Wetbulb,                                ! Humidity Indicating Type
  ,                                       ! Humidity Indicating Day Schedule Name
  DefaultMultipliers,                     ! Dry-Bulb Temperature Range Modifier Type
  ,                                       ! Dry-Bulb Temperature Range Modifier Schedule Name
  ASHRAETau,                              ! Solar Model Indicator
  ,                                       ! Beam Solar Day Schedule Name
  ,                                       ! Diffuse Solar Day Schedule Name
  0.539,                                  ! ASHRAE Taub {dimensionless}
  1.807;                                  ! ASHRAE Taud {dimensionless}

OS:ComponentData,
  {38eaeaa3-0866-4f64-ab54-b76e57e190af}, ! Handle
  Component Data 1,                       ! Name
  {41164b86-aa3c-4470-ac9d-e1e01e57db42}, ! UUID
  {64f1bd3c-1cca-483b-9ba8-48e8fc9c270e}, ! Version UUID
  1366309312,                             ! Creation Timestamp
  1366309312,                             ! Version Timestamp
  {d44e7997-9f48-4106-8d13-d72a88da9fee}; ! Name of Object 1

