
OS:Version,
  {fced3982-a39a-47bd-ba68-d136fa10ed38}, ! Handle
  0.9.3;                                  ! Version Identifier

OS:SizingPeriod:DesignDay,
  {0270ad35-f6de-4049-b7b1-61cfe5ecba61}, ! Handle
  Sacramento/Mather Fiel Ann Clg 2% Condns Enth=>MDB, ! Name
  32.5,                                   ! Maximum Dry-Bulb Temperature {C}
  18.1,                                   ! Daily Dry-Bulb Temperature Range {deltaC}
  59000,                                  ! Humidity Indicating Conditions at Maximum Dry-Bulb {BasedOnField A3}
  100977,                                 ! Barometric Pressure {Pa}
  3.4,                                    ! Wind Speed {m/s}
  220,                                    ! Wind Direction {deg}
  0,                                      ! Sky Clearness
  0,                                      ! Rain Indicator
  0,                                      ! Snow Indicator
  21,                                     ! Day of Month
  7,                                      ! Month
  SummerDesignDay,                        ! Day Type
  0,                                      ! Daylight Saving Time Indicator
  Enthalpy,                               ! Humidity Indicating Type
  ,                                       ! Humidity Indicating Day Schedule Name
  DefaultMultipliers,                     ! Dry-Bulb Temperature Range Modifier Type
  ,                                       ! Dry-Bulb Temperature Range Modifier Schedule Name
  ASHRAETau,                              ! Solar Model Indicator
  ,                                       ! Beam Solar Day Schedule Name
  ,                                       ! Diffuse Solar Day Schedule Name
  0.382,                                  ! ASHRAE Taub {dimensionless}
  2.325;                                  ! ASHRAE Taud {dimensionless}

