
OS:Version,
  {1e56a175-a640-4838-ac7a-157303f8495b}, ! Handle
  0.9.3;                                  ! Version Identifier

OS:SizingPeriod:DesignDay,
  {a153c310-e0db-417d-9d11-4cbdcfa3973c}, ! Handle
  Youngstown Ann Clg 2% Condns DB=>MWB,   ! Name
  28.5,                                   ! Maximum Dry-Bulb Temperature {C}
  11.5,                                   ! Daily Dry-Bulb Temperature Range {deltaC}
  20.9,                                   ! Humidity Indicating Conditions at Maximum Dry-Bulb {BasedOnField A3}
  97063,                                  ! Barometric Pressure {Pa}
  4.3,                                    ! Wind Speed {m/s}
  230,                                    ! Wind Direction {deg}
  0,                                      ! Sky Clearness
  0,                                      ! Rain Indicator
  0,                                      ! Snow Indicator
  21,                                     ! Day of Month
  7,                                      ! Month
  SummerDesignDay,                        ! Day Type
  0,                                      ! Daylight Saving Time Indicator
  Wetbulb,                                ! Humidity Indicating Type
  ,                                       ! Humidity Indicating Day Schedule Name
  DefaultMultipliers,                     ! Dry-Bulb Temperature Range Modifier Type
  ,                                       ! Dry-Bulb Temperature Range Modifier Schedule Name
  ASHRAETau,                              ! Solar Model Indicator
  ,                                       ! Beam Solar Day Schedule Name
  ,                                       ! Diffuse Solar Day Schedule Name
  0.456,                                  ! ASHRAE Taub {dimensionless}
  2.022;                                  ! ASHRAE Taud {dimensionless}

OS:ComponentData,
  {90f78775-9979-4f6d-a908-0e2dbcbc3cc5}, ! Handle
  Component Data 1,                       ! Name
  {c2104a30-b294-4da5-a0cc-931d789a2746}, ! UUID
  {b5af4f73-efb2-49e9-80ae-fe37c8399703}, ! Version UUID
  1366309865,                             ! Creation Timestamp
  1366309865,                             ! Version Timestamp
  {a153c310-e0db-417d-9d11-4cbdcfa3973c}; ! Name of Object 1

