
OS:Version,
  {23038265-a48c-4a3a-b5f1-ce97b2ff8add}, ! Handle
  0.9.3;                                  ! Version Identifier

OS:SizingPeriod:DesignDay,
  {090330d8-131d-4335-8485-538a5ca40a2e}, ! Handle
  Syracuse Ann Clg 1% Condns Enth=>MDB,   ! Name
  27.9,                                   ! Maximum Dry-Bulb Temperature {C}
  10.8,                                   ! Daily Dry-Bulb Temperature Range {deltaC}
  69200,                                  ! Humidity Indicating Conditions at Maximum Dry-Bulb {BasedOnField A3}
  99844,                                  ! Barometric Pressure {Pa}
  4.4,                                    ! Wind Speed {m/s}
  260,                                    ! Wind Direction {deg}
  0,                                      ! Sky Clearness
  0,                                      ! Rain Indicator
  0,                                      ! Snow Indicator
  21,                                     ! Day of Month
  7,                                      ! Month
  SummerDesignDay,                        ! Day Type
  0,                                      ! Daylight Saving Time Indicator
  Enthalpy,                               ! Humidity Indicating Type
  ,                                       ! Humidity Indicating Day Schedule Name
  DefaultMultipliers,                     ! Dry-Bulb Temperature Range Modifier Type
  ,                                       ! Dry-Bulb Temperature Range Modifier Schedule Name
  ASHRAETau,                              ! Solar Model Indicator
  ,                                       ! Beam Solar Day Schedule Name
  ,                                       ! Diffuse Solar Day Schedule Name
  0.47,                                   ! ASHRAE Taub {dimensionless}
  1.975;                                  ! ASHRAE Taud {dimensionless}

OS:ComponentData,
  {16b51606-6c90-4052-addd-d41c9f094b7a}, ! Handle
  Component Data 1,                       ! Name
  {345d16e7-1713-404a-9761-62dd18ff6a33}, ! UUID
  {8f1532c5-341c-4424-8c86-34ac6172e511}, ! Version UUID
  1366309731,                             ! Creation Timestamp
  1366309731,                             ! Version Timestamp
  {090330d8-131d-4335-8485-538a5ca40a2e}; ! Name of Object 1

