
OS:Version,
  {36451e7a-e41e-498a-826d-5d5249bb7a41}, ! Handle
  0.9.3;                                  ! Version Identifier

OS:SizingPeriod:DesignDay,
  {c72a0c1d-3a49-411e-9ec5-e93b95eebecb}, ! Handle
  Sarasota Bradenton Ann Htg Wind 99% Condns WS=>MCDB, ! Name
  18.9,                                   ! Maximum Dry-Bulb Temperature {C}
  0,                                      ! Daily Dry-Bulb Temperature Range {deltaC}
  18.9,                                   ! Humidity Indicating Conditions at Maximum Dry-Bulb {BasedOnField A3}
  101205,                                 ! Barometric Pressure {Pa}
  10.3,                                   ! Wind Speed {m/s}
  30,                                     ! Wind Direction {deg}
  0,                                      ! Sky Clearness
  0,                                      ! Rain Indicator
  0,                                      ! Snow Indicator
  21,                                     ! Day of Month
  1,                                      ! Month
  WinterDesignDay,                        ! Day Type
  0,                                      ! Daylight Saving Time Indicator
  Wetbulb,                                ! Humidity Indicating Type
  ,                                       ! Humidity Indicating Day Schedule Name
  DefaultMultipliers,                     ! Dry-Bulb Temperature Range Modifier Type
  ,                                       ! Dry-Bulb Temperature Range Modifier Schedule Name
  ASHRAEClearSky;                         ! Solar Model Indicator

OS:ComponentData,
  {d7094fbb-293c-4284-b828-8862327b524c}, ! Handle
  Component Data 1,                       ! Name
  {e572edfb-326b-424e-90ad-1b66bb3ea01b}, ! UUID
  {659ed0f6-06d7-4ecb-a86c-f30cd6447c88}, ! Version UUID
  1366306907,                             ! Creation Timestamp
  1366306907,                             ! Version Timestamp
  {c72a0c1d-3a49-411e-9ec5-e93b95eebecb}; ! Name of Object 1

