
OS:Version,
  {384b2073-f745-4c0a-aece-88b4b0d88ffa}, ! Handle
  0.9.3;                                  ! Version Identifier

OS:SizingPeriod:DesignDay,
  {e8a72f96-3959-4d2d-a2f4-fbcd6ad1abd6}, ! Handle
  Midland/Odessa Ann Clg 2% Condns DP=>MDB, ! Name
  24.3,                                   ! Maximum Dry-Bulb Temperature {C}
  13.1,                                   ! Daily Dry-Bulb Temperature Range {deltaC}
  19.7,                                   ! Humidity Indicating Conditions at Maximum Dry-Bulb {BasedOnField A3}
  91279,                                  ! Barometric Pressure {Pa}
  5.7,                                    ! Wind Speed {m/s}
  150,                                    ! Wind Direction {deg}
  0,                                      ! Sky Clearness
  0,                                      ! Rain Indicator
  0,                                      ! Snow Indicator
  21,                                     ! Day of Month
  7,                                      ! Month
  SummerDesignDay,                        ! Day Type
  0,                                      ! Daylight Saving Time Indicator
  Dewpoint,                               ! Humidity Indicating Type
  ,                                       ! Humidity Indicating Day Schedule Name
  DefaultMultipliers,                     ! Dry-Bulb Temperature Range Modifier Type
  ,                                       ! Dry-Bulb Temperature Range Modifier Schedule Name
  ASHRAETau,                              ! Solar Model Indicator
  ,                                       ! Beam Solar Day Schedule Name
  ,                                       ! Diffuse Solar Day Schedule Name
  0.443,                                  ! ASHRAE Taub {dimensionless}
  2.032;                                  ! ASHRAE Taud {dimensionless}

OS:ComponentData,
  {a86ef1f5-e466-4c0c-8159-2c924af0e276}, ! Handle
  Component Data 1,                       ! Name
  {3b937d6a-5648-42ee-99b5-54d600b8d180}, ! UUID
  {b34a9f11-ace2-42f1-9357-643ac8d57a06}, ! Version UUID
  1366310831,                             ! Creation Timestamp
  1366310831,                             ! Version Timestamp
  {e8a72f96-3959-4d2d-a2f4-fbcd6ad1abd6}; ! Name of Object 1

