
OS:Version,
  {7ca1458c-f325-456f-af64-56e226fe12ba}, ! Handle
  0.9.3;                                  ! Version Identifier

OS:SizingPeriod:DesignDay,
  {418ca5ac-0803-4879-91ca-a4cb643748eb}, ! Handle
  Mansfield Lahm Municipal Arpt Ann Clg .4% Condns WB=>MDB, ! Name
  29.2,                                   ! Maximum Dry-Bulb Temperature {C}
  10.3,                                   ! Daily Dry-Bulb Temperature Range {deltaC}
  24.4,                                   ! Humidity Indicating Conditions at Maximum Dry-Bulb {BasedOnField A3}
  96669,                                  ! Barometric Pressure {Pa}
  4.7,                                    ! Wind Speed {m/s}
  230,                                    ! Wind Direction {deg}
  0,                                      ! Sky Clearness
  0,                                      ! Rain Indicator
  0,                                      ! Snow Indicator
  21,                                     ! Day of Month
  7,                                      ! Month
  SummerDesignDay,                        ! Day Type
  0,                                      ! Daylight Saving Time Indicator
  Wetbulb,                                ! Humidity Indicating Type
  ,                                       ! Humidity Indicating Day Schedule Name
  DefaultMultipliers,                     ! Dry-Bulb Temperature Range Modifier Type
  ,                                       ! Dry-Bulb Temperature Range Modifier Schedule Name
  ASHRAETau,                              ! Solar Model Indicator
  ,                                       ! Beam Solar Day Schedule Name
  ,                                       ! Diffuse Solar Day Schedule Name
  0.456,                                  ! ASHRAE Taub {dimensionless}
  2.029;                                  ! ASHRAE Taud {dimensionless}

OS:ComponentData,
  {b3985cae-bc33-4f31-9e6c-e377e070c7e2}, ! Handle
  Component Data 1,                       ! Name
  {7d60a627-db09-4bbf-baeb-41408e19a7b2}, ! UUID
  {3cc71f13-f47c-44f4-b15c-74ff004c695f}, ! Version UUID
  1366309831,                             ! Creation Timestamp
  1366309831,                             ! Version Timestamp
  {418ca5ac-0803-4879-91ca-a4cb643748eb}; ! Name of Object 1

