
OS:Version,
  {bdf40ae3-c9bc-4e8b-8385-a160d0d2db63}, ! Handle
  0.9.3;                                  ! Version Identifier

OS:SizingPeriod:DesignDay,
  {f2958bae-8f9a-4c9d-96f8-983908b7a227}, ! Handle
  MOLINE Ann Htg 99% Condns DB,           ! Name
  -17.8,                                  ! Maximum Dry-Bulb Temperature {C}
  0,                                      ! Daily Dry-Bulb Temperature Range {deltaC}
  -17.8,                                  ! Humidity Indicating Conditions at Maximum Dry-Bulb {BasedOnField A3}
  99169,                                  ! Barometric Pressure {Pa}
  4.1,                                    ! Wind Speed {m/s}
  280,                                    ! Wind Direction {deg}
  0,                                      ! Sky Clearness
  0,                                      ! Rain Indicator
  0,                                      ! Snow Indicator
  21,                                     ! Day of Month
  1,                                      ! Month
  WinterDesignDay,                        ! Day Type
  0,                                      ! Daylight Saving Time Indicator
  Wetbulb,                                ! Humidity Indicating Type
  ,                                       ! Humidity Indicating Day Schedule Name
  DefaultMultipliers,                     ! Dry-Bulb Temperature Range Modifier Type
  ,                                       ! Dry-Bulb Temperature Range Modifier Schedule Name
  ASHRAEClearSky;                         ! Solar Model Indicator

OS:ComponentData,
  {79a61657-bd37-4ab5-baec-e0722fac1e86}, ! Handle
  Component Data 1,                       ! Name
  {05a0dea4-4770-48f9-b70a-860dd492318f}, ! UUID
  {441c149c-becf-408b-99e5-96090992b4bf}, ! Version UUID
  1366307371,                             ! Creation Timestamp
  1366307371,                             ! Version Timestamp
  {f2958bae-8f9a-4c9d-96f8-983908b7a227}; ! Name of Object 1

