
OS:Version,
  {c637b031-d5bc-4743-8a96-70031058f8e4}, ! Handle
  0.9.3;                                  ! Version Identifier

OS:SizingPeriod:DesignDay,
  {330cc03e-cd04-429d-9ab7-dd7d50bf2e6a}, ! Handle
  San Luis Co Rgnl Ann Clg 2% Condns DP=>MDB, ! Name
  20.3,                                   ! Maximum Dry-Bulb Temperature {C}
  12.2,                                   ! Daily Dry-Bulb Temperature Range {deltaC}
  15,                                     ! Humidity Indicating Conditions at Maximum Dry-Bulb {BasedOnField A3}
  100535,                                 ! Barometric Pressure {Pa}
  4.9,                                    ! Wind Speed {m/s}
  300,                                    ! Wind Direction {deg}
  0,                                      ! Sky Clearness
  0,                                      ! Rain Indicator
  0,                                      ! Snow Indicator
  21,                                     ! Day of Month
  8,                                      ! Month
  SummerDesignDay,                        ! Day Type
  0,                                      ! Daylight Saving Time Indicator
  Dewpoint,                               ! Humidity Indicating Type
  ,                                       ! Humidity Indicating Day Schedule Name
  DefaultMultipliers,                     ! Dry-Bulb Temperature Range Modifier Type
  ,                                       ! Dry-Bulb Temperature Range Modifier Schedule Name
  ASHRAETau,                              ! Solar Model Indicator
  ,                                       ! Beam Solar Day Schedule Name
  ,                                       ! Diffuse Solar Day Schedule Name
  0.375,                                  ! ASHRAE Taub {dimensionless}
  2.406;                                  ! ASHRAE Taud {dimensionless}

OS:ComponentData,
  {4aac3c11-b433-4782-b875-290ef13dff90}, ! Handle
  Component Data 1,                       ! Name
  {9c1ba834-fa24-4561-8ee6-697454f0fe48}, ! UUID
  {0c76b6fe-b76e-4df5-b79f-5569169a8197}, ! Version UUID
  1366306601,                             ! Creation Timestamp
  1366306601,                             ! Version Timestamp
  {330cc03e-cd04-429d-9ab7-dd7d50bf2e6a}; ! Name of Object 1

