
OS:Version,
  {29e58e89-0ccc-47e4-b87b-589e6bd91d6b}, ! Handle
  0.9.3;                                  ! Version Identifier

OS:SizingPeriod:DesignDay,
  {78938102-f244-4103-b3a2-f5b601f6712b}, ! Handle
  Parkersburg Wood County Ap Ann Clg 1% Condns Enth=>MDB, ! Name
  29,                                     ! Maximum Dry-Bulb Temperature {C}
  10.8,                                   ! Daily Dry-Bulb Temperature Range {deltaC}
  73400,                                  ! Humidity Indicating Conditions at Maximum Dry-Bulb {BasedOnField A3}
  98322,                                  ! Barometric Pressure {Pa}
  3.4,                                    ! Wind Speed {m/s}
  250,                                    ! Wind Direction {deg}
  0,                                      ! Sky Clearness
  0,                                      ! Rain Indicator
  0,                                      ! Snow Indicator
  21,                                     ! Day of Month
  7,                                      ! Month
  SummerDesignDay,                        ! Day Type
  0,                                      ! Daylight Saving Time Indicator
  Enthalpy,                               ! Humidity Indicating Type
  ,                                       ! Humidity Indicating Day Schedule Name
  DefaultMultipliers,                     ! Dry-Bulb Temperature Range Modifier Type
  ,                                       ! Dry-Bulb Temperature Range Modifier Schedule Name
  ASHRAETau,                              ! Solar Model Indicator
  ,                                       ! Beam Solar Day Schedule Name
  ,                                       ! Diffuse Solar Day Schedule Name
  0.5,                                    ! ASHRAE Taub {dimensionless}
  1.892;                                  ! ASHRAE Taud {dimensionless}

OS:ComponentData,
  {e6da9293-a4db-49fc-9417-1032eb606f15}, ! Handle
  Component Data 1,                       ! Name
  {c85e6ba3-5d77-49a0-9cb7-07970655fa69}, ! UUID
  {0f7ef54c-199e-418c-b3b1-157e5de0b40e}, ! Version UUID
  1366311678,                             ! Creation Timestamp
  1366311678,                             ! Version Timestamp
  {78938102-f244-4103-b3a2-f5b601f6712b}; ! Name of Object 1

