
OS:Version,
  {6009d9b2-2a89-4994-a846-8faa03f70cad}, ! Handle
  0.9.3;                                  ! Version Identifier

OS:SizingPeriod:DesignDay,
  {c9c4ec92-d240-40b5-89b4-d14ba52fa8a9}, ! Handle
  Mountain View/Moffet N Ann Htg 99% Condns DB, ! Name
  3.7,                                    ! Maximum Dry-Bulb Temperature {C}
  0,                                      ! Daily Dry-Bulb Temperature Range {deltaC}
  3.7,                                    ! Humidity Indicating Conditions at Maximum Dry-Bulb {BasedOnField A3}
  101181,                                 ! Barometric Pressure {Pa}
  0.5,                                    ! Wind Speed {m/s}
  270,                                    ! Wind Direction {deg}
  0,                                      ! Sky Clearness
  0,                                      ! Rain Indicator
  0,                                      ! Snow Indicator
  21,                                     ! Day of Month
  12,                                     ! Month
  WinterDesignDay,                        ! Day Type
  0,                                      ! Daylight Saving Time Indicator
  Wetbulb,                                ! Humidity Indicating Type
  ,                                       ! Humidity Indicating Day Schedule Name
  DefaultMultipliers,                     ! Dry-Bulb Temperature Range Modifier Type
  ,                                       ! Dry-Bulb Temperature Range Modifier Schedule Name
  ASHRAEClearSky;                         ! Solar Model Indicator

OS:ComponentData,
  {bd104615-804d-449b-a163-1a91a1fbb84a}, ! Handle
  Component Data 1,                       ! Name
  {f7366b12-f1ff-4e04-a33b-2517758ff54e}, ! UUID
  {3dc7ce90-a2bd-4362-a75c-7354de1d9be8}, ! Version UUID
  1366306505,                             ! Creation Timestamp
  1366306505,                             ! Version Timestamp
  {c9c4ec92-d240-40b5-89b4-d14ba52fa8a9}; ! Name of Object 1

