
OS:Version,
  {59998ebc-83dc-4243-96e6-002b9ad76636}, ! Handle
  0.9.3;                                  ! Version Identifier

OS:SizingPeriod:DesignDay,
  {083d0e74-d2cd-4821-bb63-54dbfc41b4f0}, ! Handle
  Newport News Ann Hum_n 99.6% Condns DP=>MCDB, ! Name
  -4.2,                                   ! Maximum Dry-Bulb Temperature {C}
  0,                                      ! Daily Dry-Bulb Temperature Range {deltaC}
  -17.1,                                  ! Humidity Indicating Conditions at Maximum Dry-Bulb {BasedOnField A3}
  101169,                                 ! Barometric Pressure {Pa}
  3.1,                                    ! Wind Speed {m/s}
  350,                                    ! Wind Direction {deg}
  0,                                      ! Sky Clearness
  0,                                      ! Rain Indicator
  0,                                      ! Snow Indicator
  21,                                     ! Day of Month
  1,                                      ! Month
  WinterDesignDay,                        ! Day Type
  0,                                      ! Daylight Saving Time Indicator
  Dewpoint,                               ! Humidity Indicating Type
  ,                                       ! Humidity Indicating Day Schedule Name
  DefaultMultipliers,                     ! Dry-Bulb Temperature Range Modifier Type
  ,                                       ! Dry-Bulb Temperature Range Modifier Schedule Name
  ASHRAEClearSky;                         ! Solar Model Indicator

OS:ComponentData,
  {57709eeb-f53c-414d-a38d-dd58341a1cd3}, ! Handle
  Component Data 1,                       ! Name
  {80149ce0-7ae5-4f47-a3a8-8374c3290f8d}, ! UUID
  {aa9e3dcc-c689-4acd-b3f1-a464e75fa844}, ! Version UUID
  1366311116,                             ! Creation Timestamp
  1366311116,                             ! Version Timestamp
  {083d0e74-d2cd-4821-bb63-54dbfc41b4f0}; ! Name of Object 1

