
OS:Version,
  {b6ec3f0f-1860-432c-9076-fa62c08cd9c9}, ! Handle
  0.9.3;                                  ! Version Identifier

OS:SizingPeriod:DesignDay,
  {3d26b0bc-a23e-406a-bd93-4a1cb3b1afa5}, ! Handle
  Pasco Ann Clg 2% Condns Enth=>MDB,      ! Name
  31.7,                                   ! Maximum Dry-Bulb Temperature {C}
  17.8,                                   ! Daily Dry-Bulb Temperature Range {deltaC}
  58100,                                  ! Humidity Indicating Conditions at Maximum Dry-Bulb {BasedOnField A3}
  99702,                                  ! Barometric Pressure {Pa}
  3.1,                                    ! Wind Speed {m/s}
  330,                                    ! Wind Direction {deg}
  0,                                      ! Sky Clearness
  0,                                      ! Rain Indicator
  0,                                      ! Snow Indicator
  21,                                     ! Day of Month
  7,                                      ! Month
  SummerDesignDay,                        ! Day Type
  0,                                      ! Daylight Saving Time Indicator
  Enthalpy,                               ! Humidity Indicating Type
  ,                                       ! Humidity Indicating Day Schedule Name
  DefaultMultipliers,                     ! Dry-Bulb Temperature Range Modifier Type
  ,                                       ! Dry-Bulb Temperature Range Modifier Schedule Name
  ASHRAETau,                              ! Solar Model Indicator
  ,                                       ! Beam Solar Day Schedule Name
  ,                                       ! Diffuse Solar Day Schedule Name
  0.398,                                  ! ASHRAE Taub {dimensionless}
  2.219;                                  ! ASHRAE Taud {dimensionless}

OS:ComponentData,
  {4e9176ee-f9f8-4f02-82c5-73b2fc5a83af}, ! Handle
  Component Data 1,                       ! Name
  {fd7dd5e9-5013-44d0-91f9-a56aebf98b2a}, ! UUID
  {7acd412f-d000-47a0-aa82-381fe5849f94}, ! Version UUID
  1366311321,                             ! Creation Timestamp
  1366311321,                             ! Version Timestamp
  {3d26b0bc-a23e-406a-bd93-4a1cb3b1afa5}; ! Name of Object 1

