
OS:Version,
  {965eebdb-098b-4359-9d23-13d6bd322452}, ! Handle
  0.9.3;                                  ! Version Identifier

OS:SizingPeriod:DesignDay,
  {9ca7f79d-13b5-46f2-899e-8979e1efd708}, ! Handle
  Redwood Falls Muni Ann Clg 1% Condns Enth=>MDB, ! Name
  29.3,                                   ! Maximum Dry-Bulb Temperature {C}
  11.4,                                   ! Daily Dry-Bulb Temperature Range {deltaC}
  75100,                                  ! Humidity Indicating Conditions at Maximum Dry-Bulb {BasedOnField A3}
  97633,                                  ! Barometric Pressure {Pa}
  6.3,                                    ! Wind Speed {m/s}
  180,                                    ! Wind Direction {deg}
  0,                                      ! Sky Clearness
  0,                                      ! Rain Indicator
  0,                                      ! Snow Indicator
  21,                                     ! Day of Month
  7,                                      ! Month
  SummerDesignDay,                        ! Day Type
  0,                                      ! Daylight Saving Time Indicator
  Enthalpy,                               ! Humidity Indicating Type
  ,                                       ! Humidity Indicating Day Schedule Name
  DefaultMultipliers,                     ! Dry-Bulb Temperature Range Modifier Type
  ,                                       ! Dry-Bulb Temperature Range Modifier Schedule Name
  ASHRAETau,                              ! Solar Model Indicator
  ,                                       ! Beam Solar Day Schedule Name
  ,                                       ! Diffuse Solar Day Schedule Name
  0.402,                                  ! ASHRAE Taub {dimensionless}
  2.246;                                  ! ASHRAE Taud {dimensionless}

OS:ComponentData,
  {fc0d8b3f-8335-42c9-9f41-28e52dce01de}, ! Handle
  Component Data 1,                       ! Name
  {db9f19b5-1c29-43c7-be67-77961a33fbdc}, ! UUID
  {97a69d45-4a28-43ae-a496-c643566ec006}, ! Version UUID
  1366308383,                             ! Creation Timestamp
  1366308383,                             ! Version Timestamp
  {9ca7f79d-13b5-46f2-899e-8979e1efd708}; ! Name of Object 1

