
OS:Version,
  {22871f2f-32dc-45f8-8fa2-fda635490df3}, ! Handle
  0.9.3;                                  ! Version Identifier

OS:SizingPeriod:DesignDay,
  {0e4820fa-ee79-42dc-a37b-7b52ab8e025b}, ! Handle
  MUSKEGON Ann Clg 1% Condns DB=>MWB,     ! Name
  28.8,                                   ! Maximum Dry-Bulb Temperature {C}
  10,                                     ! Daily Dry-Bulb Temperature Range {deltaC}
  21.7,                                   ! Humidity Indicating Conditions at Maximum Dry-Bulb {BasedOnField A3}
  99051,                                  ! Barometric Pressure {Pa}
  5.4,                                    ! Wind Speed {m/s}
  200,                                    ! Wind Direction {deg}
  0,                                      ! Sky Clearness
  0,                                      ! Rain Indicator
  0,                                      ! Snow Indicator
  21,                                     ! Day of Month
  7,                                      ! Month
  SummerDesignDay,                        ! Day Type
  0,                                      ! Daylight Saving Time Indicator
  Wetbulb,                                ! Humidity Indicating Type
  ,                                       ! Humidity Indicating Day Schedule Name
  DefaultMultipliers,                     ! Dry-Bulb Temperature Range Modifier Type
  ,                                       ! Dry-Bulb Temperature Range Modifier Schedule Name
  ASHRAETau,                              ! Solar Model Indicator
  ,                                       ! Beam Solar Day Schedule Name
  ,                                       ! Diffuse Solar Day Schedule Name
  0.436,                                  ! ASHRAE Taub {dimensionless}
  2.131;                                  ! ASHRAE Taud {dimensionless}

OS:ComponentData,
  {1239748d-0d09-40da-ac54-d972a947b26a}, ! Handle
  Component Data 1,                       ! Name
  {0541b92d-ec98-418f-824f-6dedafe4aded}, ! UUID
  {f7e346b2-7b35-40cd-aca4-e61d5dd4da37}, ! Version UUID
  1366308072,                             ! Creation Timestamp
  1366308072,                             ! Version Timestamp
  {0e4820fa-ee79-42dc-a37b-7b52ab8e025b}; ! Name of Object 1

