
OS:Version,
  {91829d1e-564f-41b1-89ea-8ec2b2b73dfc}, ! Handle
  0.9.3;                                  ! Version Identifier

OS:SizingPeriod:DesignDay,
  {cafe36e1-2fd3-4bb8-bcdf-333c24d1106f}, ! Handle
  Utica Oneida County Ap Ann Hum_n 99.6% Condns DP=>MCDB, ! Name
  -19.6,                                  ! Maximum Dry-Bulb Temperature {C}
  0,                                      ! Daily Dry-Bulb Temperature Range {deltaC}
  -25.5,                                  ! Humidity Indicating Conditions at Maximum Dry-Bulb {BasedOnField A3}
  98745,                                  ! Barometric Pressure {Pa}
  3.2,                                    ! Wind Speed {m/s}
  270,                                    ! Wind Direction {deg}
  0,                                      ! Sky Clearness
  0,                                      ! Rain Indicator
  0,                                      ! Snow Indicator
  21,                                     ! Day of Month
  1,                                      ! Month
  WinterDesignDay,                        ! Day Type
  0,                                      ! Daylight Saving Time Indicator
  Dewpoint,                               ! Humidity Indicating Type
  ,                                       ! Humidity Indicating Day Schedule Name
  DefaultMultipliers,                     ! Dry-Bulb Temperature Range Modifier Type
  ,                                       ! Dry-Bulb Temperature Range Modifier Schedule Name
  ASHRAEClearSky;                         ! Solar Model Indicator

OS:ComponentData,
  {e609d8e6-158e-4631-b70d-4e0377c3319a}, ! Handle
  Component Data 1,                       ! Name
  {ed22d9ba-ddff-43f3-b75a-c2bc076dd548}, ! UUID
  {acc3c9b8-5814-412c-be37-35c9e7537b09}, ! Version UUID
  1366309744,                             ! Creation Timestamp
  1366309744,                             ! Version Timestamp
  {cafe36e1-2fd3-4bb8-bcdf-333c24d1106f}; ! Name of Object 1

