
OS:Version,
  {0e7d94e7-da87-4982-8581-22ce440f05b4}, ! Handle
  0.9.3;                                  ! Version Identifier

OS:SizingPeriod:DesignDay,
  {45a60023-3dd1-48be-b210-871af4318bdf}, ! Handle
  Mansfield Lahm Municipal Arpt Ann Clg 2% Condns WB=>MDB, ! Name
  27,                                     ! Maximum Dry-Bulb Temperature {C}
  10.3,                                   ! Daily Dry-Bulb Temperature Range {deltaC}
  22.7,                                   ! Humidity Indicating Conditions at Maximum Dry-Bulb {BasedOnField A3}
  96669,                                  ! Barometric Pressure {Pa}
  4.7,                                    ! Wind Speed {m/s}
  230,                                    ! Wind Direction {deg}
  0,                                      ! Sky Clearness
  0,                                      ! Rain Indicator
  0,                                      ! Snow Indicator
  21,                                     ! Day of Month
  7,                                      ! Month
  SummerDesignDay,                        ! Day Type
  0,                                      ! Daylight Saving Time Indicator
  Wetbulb,                                ! Humidity Indicating Type
  ,                                       ! Humidity Indicating Day Schedule Name
  DefaultMultipliers,                     ! Dry-Bulb Temperature Range Modifier Type
  ,                                       ! Dry-Bulb Temperature Range Modifier Schedule Name
  ASHRAETau,                              ! Solar Model Indicator
  ,                                       ! Beam Solar Day Schedule Name
  ,                                       ! Diffuse Solar Day Schedule Name
  0.456,                                  ! ASHRAE Taub {dimensionless}
  2.029;                                  ! ASHRAE Taud {dimensionless}

OS:ComponentData,
  {1ba59b19-5109-402d-8aaa-e1719e8e63d5}, ! Handle
  Component Data 1,                       ! Name
  {34f74b1a-1897-4bb0-967a-a174ccb3f9b2}, ! UUID
  {bf1661f9-7314-433d-bc29-8355c6c62bee}, ! Version UUID
  1366309831,                             ! Creation Timestamp
  1366309831,                             ! Version Timestamp
  {45a60023-3dd1-48be-b210-871af4318bdf}; ! Name of Object 1

