
OS:Version,
  {ce98949c-4937-4ee5-a5f6-9e94ae6c8d2f}, ! Handle
  0.9.3;                                  ! Version Identifier

OS:SizingPeriod:DesignDay,
  {514dbba0-688f-47c8-adb4-b20d3bc0b157}, ! Handle
  TOPEKA Ann Clg .4% Condns WB=>MDB,      ! Name
  32.8,                                   ! Maximum Dry-Bulb Temperature {C}
  11.3,                                   ! Daily Dry-Bulb Temperature Range {deltaC}
  26.1,                                   ! Humidity Indicating Conditions at Maximum Dry-Bulb {BasedOnField A3}
  98123,                                  ! Barometric Pressure {Pa}
  4.9,                                    ! Wind Speed {m/s}
  200,                                    ! Wind Direction {deg}
  0,                                      ! Sky Clearness
  0,                                      ! Rain Indicator
  0,                                      ! Snow Indicator
  21,                                     ! Day of Month
  7,                                      ! Month
  SummerDesignDay,                        ! Day Type
  0,                                      ! Daylight Saving Time Indicator
  Wetbulb,                                ! Humidity Indicating Type
  ,                                       ! Humidity Indicating Day Schedule Name
  DefaultMultipliers,                     ! Dry-Bulb Temperature Range Modifier Type
  ,                                       ! Dry-Bulb Temperature Range Modifier Schedule Name
  ASHRAETau,                              ! Solar Model Indicator
  ,                                       ! Beam Solar Day Schedule Name
  ,                                       ! Diffuse Solar Day Schedule Name
  0.434,                                  ! ASHRAE Taub {dimensionless}
  2.183;                                  ! ASHRAE Taud {dimensionless}

OS:ComponentData,
  {34f0dd82-26fb-4e2f-af78-52a6d14864f1}, ! Handle
  Component Data 1,                       ! Name
  {689cab47-ffe2-4cf5-9ad0-5afc5fa2b174}, ! UUID
  {6ae4a14e-80e4-4c66-8be3-5da5484d5287}, ! Version UUID
  1366307591,                             ! Creation Timestamp
  1366307591,                             ! Version Timestamp
  {514dbba0-688f-47c8-adb4-b20d3bc0b157}; ! Name of Object 1

