
OS:Version,
  {c7c96bda-5975-4a74-ad68-a2bf1007cb78}, ! Handle
  0.9.3;                                  ! Version Identifier

OS:SizingPeriod:DesignDay,
  {b037e08d-496e-4336-9230-88d6bd6f4d42}, ! Handle
  Shannon Arpt Ann Hum_n 99% Condns DP=>MCDB, ! Name
  -5,                                     ! Maximum Dry-Bulb Temperature {C}
  0,                                      ! Daily Dry-Bulb Temperature Range {deltaC}
  -16,                                    ! Humidity Indicating Conditions at Maximum Dry-Bulb {BasedOnField A3}
  101013,                                 ! Barometric Pressure {Pa}
  1.6,                                    ! Wind Speed {m/s}
  330,                                    ! Wind Direction {deg}
  0,                                      ! Sky Clearness
  0,                                      ! Rain Indicator
  0,                                      ! Snow Indicator
  21,                                     ! Day of Month
  1,                                      ! Month
  WinterDesignDay,                        ! Day Type
  0,                                      ! Daylight Saving Time Indicator
  Dewpoint,                               ! Humidity Indicating Type
  ,                                       ! Humidity Indicating Day Schedule Name
  DefaultMultipliers,                     ! Dry-Bulb Temperature Range Modifier Type
  ,                                       ! Dry-Bulb Temperature Range Modifier Schedule Name
  ASHRAEClearSky;                         ! Solar Model Indicator

OS:ComponentData,
  {bd9d9696-f5a7-402b-b342-eb901d582f68}, ! Handle
  Component Data 1,                       ! Name
  {08918d8d-35ab-414d-8561-dc804bd705ee}, ! UUID
  {2c598b3e-f1fa-47ff-999a-b2662d3103a0}, ! Version UUID
  1366311052,                             ! Creation Timestamp
  1366311052,                             ! Version Timestamp
  {b037e08d-496e-4336-9230-88d6bd6f4d42}; ! Name of Object 1

