
OS:Version,
  {1c0a4338-049b-45e1-9565-3d501e5c6e2d}, ! Handle
  0.9.3;                                  ! Version Identifier

OS:SizingPeriod:DesignDay,
  {6c43e3c3-6c57-49e6-ba8b-ed7499f7b964}, ! Handle
  Mc Gregor  Awos Ann Hum_n 99% Condns DP=>MCDB, ! Name
  2.3,                                    ! Maximum Dry-Bulb Temperature {C}
  0,                                      ! Daily Dry-Bulb Temperature Range {deltaC}
  -9.1,                                   ! Humidity Indicating Conditions at Maximum Dry-Bulb {BasedOnField A3}
  99181,                                  ! Barometric Pressure {Pa}
  4,                                      ! Wind Speed {m/s}
  0,                                      ! Wind Direction {deg}
  0,                                      ! Sky Clearness
  0,                                      ! Rain Indicator
  0,                                      ! Snow Indicator
  21,                                     ! Day of Month
  1,                                      ! Month
  WinterDesignDay,                        ! Day Type
  0,                                      ! Daylight Saving Time Indicator
  Dewpoint,                               ! Humidity Indicating Type
  ,                                       ! Humidity Indicating Day Schedule Name
  DefaultMultipliers,                     ! Dry-Bulb Temperature Range Modifier Type
  ,                                       ! Dry-Bulb Temperature Range Modifier Schedule Name
  ASHRAEClearSky;                         ! Solar Model Indicator

OS:ComponentData,
  {be48cacd-4438-4863-9994-b2baae8bdb56}, ! Handle
  Component Data 1,                       ! Name
  {13cfd372-15ea-4597-b241-dd322b26ccc5}, ! UUID
  {03e4a4c1-931e-4868-b620-1a61f40dae55}, ! Version UUID
  1366310823,                             ! Creation Timestamp
  1366310823,                             ! Version Timestamp
  {6c43e3c3-6c57-49e6-ba8b-ed7499f7b964}; ! Name of Object 1

