
OS:Version,
  {51e0d9a2-0973-4f02-8ba5-b91f980b49be}, ! Handle
  0.9.3;                                  ! Version Identifier

OS:SizingPeriod:DesignDay,
  {f8c20533-e068-4c45-8137-5ab845cde56d}, ! Handle
  Montague Siskiyou County Ap Ann Clg 1% Condns WB=>MDB, ! Name
  31.7,                                   ! Maximum Dry-Bulb Temperature {C}
  19.4,                                   ! Daily Dry-Bulb Temperature Range {deltaC}
  17.9,                                   ! Humidity Indicating Conditions at Maximum Dry-Bulb {BasedOnField A3}
  92043,                                  ! Barometric Pressure {Pa}
  3.2,                                    ! Wind Speed {m/s}
  190,                                    ! Wind Direction {deg}
  0,                                      ! Sky Clearness
  0,                                      ! Rain Indicator
  0,                                      ! Snow Indicator
  21,                                     ! Day of Month
  7,                                      ! Month
  SummerDesignDay,                        ! Day Type
  0,                                      ! Daylight Saving Time Indicator
  Wetbulb,                                ! Humidity Indicating Type
  ,                                       ! Humidity Indicating Day Schedule Name
  DefaultMultipliers,                     ! Dry-Bulb Temperature Range Modifier Type
  ,                                       ! Dry-Bulb Temperature Range Modifier Schedule Name
  ASHRAETau,                              ! Solar Model Indicator
  ,                                       ! Beam Solar Day Schedule Name
  ,                                       ! Diffuse Solar Day Schedule Name
  0.349,                                  ! ASHRAE Taub {dimensionless}
  2.55;                                   ! ASHRAE Taud {dimensionless}

OS:ComponentData,
  {466870a2-2bb4-445b-a917-1c81e662dbc7}, ! Handle
  Component Data 1,                       ! Name
  {12a7702c-c16a-4080-8841-348c8504046b}, ! UUID
  {e3f48c33-84a5-4602-a2d6-9ee621da4d72}, ! Version UUID
  1366306496,                             ! Creation Timestamp
  1366306496,                             ! Version Timestamp
  {f8c20533-e068-4c45-8137-5ab845cde56d}; ! Name of Object 1

