
OS:Version,
  {35361078-9af5-4a09-9710-8a4069a80021}, ! Handle
  0.9.3;                                  ! Version Identifier

OS:SizingPeriod:DesignDay,
  {cb78e95e-2c04-4240-9a5e-bfc140c89ca2}, ! Handle
  Newark Ann Clg 1% Condns DP=>MDB,       ! Name
  27.1,                                   ! Maximum Dry-Bulb Temperature {C}
  8.9,                                    ! Daily Dry-Bulb Temperature Range {deltaC}
  23.1,                                   ! Humidity Indicating Conditions at Maximum Dry-Bulb {BasedOnField A3}
  101217,                                 ! Barometric Pressure {Pa}
  5.8,                                    ! Wind Speed {m/s}
  250,                                    ! Wind Direction {deg}
  0,                                      ! Sky Clearness
  0,                                      ! Rain Indicator
  0,                                      ! Snow Indicator
  21,                                     ! Day of Month
  7,                                      ! Month
  SummerDesignDay,                        ! Day Type
  0,                                      ! Daylight Saving Time Indicator
  Dewpoint,                               ! Humidity Indicating Type
  ,                                       ! Humidity Indicating Day Schedule Name
  DefaultMultipliers,                     ! Dry-Bulb Temperature Range Modifier Type
  ,                                       ! Dry-Bulb Temperature Range Modifier Schedule Name
  ASHRAETau,                              ! Solar Model Indicator
  ,                                       ! Beam Solar Day Schedule Name
  ,                                       ! Diffuse Solar Day Schedule Name
  0.528,                                  ! ASHRAE Taub {dimensionless}
  1.831;                                  ! ASHRAE Taud {dimensionless}

OS:ComponentData,
  {01e52ce1-b44b-4009-a845-6b29f64a7038}, ! Handle
  Component Data 1,                       ! Name
  {501aad25-131a-42b2-98b2-ace384e6cd97}, ! UUID
  {3ac547c5-1b9f-4460-a50e-6ee018bcff73}, ! Version UUID
  1366309333,                             ! Creation Timestamp
  1366309333,                             ! Version Timestamp
  {cb78e95e-2c04-4240-9a5e-bfc140c89ca2}; ! Name of Object 1

