
OS:Version,
  {4c87adf9-5769-4856-891e-2318a137864f}, ! Handle
  0.9.3;                                  ! Version Identifier

OS:SizingPeriod:DesignDay,
  {2cf2a20f-8118-4156-b4f7-48b2475a807c}, ! Handle
  Sand Point Ann Clg 2% Condns WB=>MDB,   ! Name
  13.3,                                   ! Maximum Dry-Bulb Temperature {C}
  3.8,                                    ! Daily Dry-Bulb Temperature Range {deltaC}
  11.7,                                   ! Humidity Indicating Conditions at Maximum Dry-Bulb {BasedOnField A3}
  101241,                                 ! Barometric Pressure {Pa}
  4.2,                                    ! Wind Speed {m/s}
  350,                                    ! Wind Direction {deg}
  0,                                      ! Sky Clearness
  0,                                      ! Rain Indicator
  0,                                      ! Snow Indicator
  21,                                     ! Day of Month
  8,                                      ! Month
  SummerDesignDay,                        ! Day Type
  0,                                      ! Daylight Saving Time Indicator
  Wetbulb,                                ! Humidity Indicating Type
  ,                                       ! Humidity Indicating Day Schedule Name
  DefaultMultipliers,                     ! Dry-Bulb Temperature Range Modifier Type
  ,                                       ! Dry-Bulb Temperature Range Modifier Schedule Name
  ASHRAETau,                              ! Solar Model Indicator
  ,                                       ! Beam Solar Day Schedule Name
  ,                                       ! Diffuse Solar Day Schedule Name
  0.381,                                  ! ASHRAE Taub {dimensionless}
  2.28;                                   ! ASHRAE Taud {dimensionless}

