
OS:Version,
  {0a5ae17c-966f-447f-9440-7c7f2fd7f26c}, ! Handle
  0.9.3;                                  ! Version Identifier

OS:SizingPeriod:DesignDay,
  {82a4758b-8f4c-43d8-88f7-2c5c2707cf5f}, ! Handle
  Mekoryuk Ann Hum_n 99% Condns DP=>MCDB, ! Name
  -22.7,                                  ! Maximum Dry-Bulb Temperature {C}
  0,                                      ! Daily Dry-Bulb Temperature Range {deltaC}
  -27.7,                                  ! Humidity Indicating Conditions at Maximum Dry-Bulb {BasedOnField A3}
  101145,                                 ! Barometric Pressure {Pa}
  4.2,                                    ! Wind Speed {m/s}
  30,                                     ! Wind Direction {deg}
  0,                                      ! Sky Clearness
  0,                                      ! Rain Indicator
  0,                                      ! Snow Indicator
  21,                                     ! Day of Month
  1,                                      ! Month
  WinterDesignDay,                        ! Day Type
  0,                                      ! Daylight Saving Time Indicator
  Dewpoint,                               ! Humidity Indicating Type
  ,                                       ! Humidity Indicating Day Schedule Name
  DefaultMultipliers,                     ! Dry-Bulb Temperature Range Modifier Type
  ,                                       ! Dry-Bulb Temperature Range Modifier Schedule Name
  ASHRAEClearSky;                         ! Solar Model Indicator

OS:ComponentData,
  {cc8dfee0-f9a8-4c30-afa6-e2786e15d6fc}, ! Handle
  Component Data 1,                       ! Name
  {82b553dd-8ea5-42c7-9c90-6c7f7bd51a8f}, ! UUID
  {a31fa6e1-a973-4cec-a177-64230b176c51}, ! Version UUID
  1366305424,                             ! Creation Timestamp
  1366305424,                             ! Version Timestamp
  {82a4758b-8f4c-43d8-88f7-2c5c2707cf5f}; ! Name of Object 1

