
OS:Version,
  {d1d80f77-06bb-4909-90d2-587560f55048}, ! Handle
  0.9.3;                                  ! Version Identifier

OS:SizingPeriod:DesignDay,
  {112a5f2a-9d2a-4dd3-a960-4d83dddaca5e}, ! Handle
  Mobile Regional Ap Ann Hum_n 99.6% Condns DP=>MCDB, ! Name
  1.5,                                    ! Maximum Dry-Bulb Temperature {C}
  0,                                      ! Daily Dry-Bulb Temperature Range {deltaC}
  -11.5,                                  ! Humidity Indicating Conditions at Maximum Dry-Bulb {BasedOnField A3}
  100535,                                 ! Barometric Pressure {Pa}
  3.7,                                    ! Wind Speed {m/s}
  10,                                     ! Wind Direction {deg}
  0,                                      ! Sky Clearness
  0,                                      ! Rain Indicator
  0,                                      ! Snow Indicator
  21,                                     ! Day of Month
  1,                                      ! Month
  WinterDesignDay,                        ! Day Type
  0,                                      ! Daylight Saving Time Indicator
  Dewpoint,                               ! Humidity Indicating Type
  ,                                       ! Humidity Indicating Day Schedule Name
  DefaultMultipliers,                     ! Dry-Bulb Temperature Range Modifier Type
  ,                                       ! Dry-Bulb Temperature Range Modifier Schedule Name
  ASHRAEClearSky;                         ! Solar Model Indicator

OS:ComponentData,
  {ed8910a0-f70d-4cae-8627-8552c980ba80}, ! Handle
  Component Data 1,                       ! Name
  {413e8c9b-6404-4695-a86e-a3720da7b9d4}, ! UUID
  {9fc00fa5-fa6a-4e29-816f-43c9710ef719}, ! Version UUID
  1366305785,                             ! Creation Timestamp
  1366305785,                             ! Version Timestamp
  {112a5f2a-9d2a-4dd3-a960-4d83dddaca5e}; ! Name of Object 1

