
OS:Version,
  {753fe7fd-a0fe-4aca-ad37-d0dd625831eb}, ! Handle
  0.9.3;                                  ! Version Identifier

OS:SizingPeriod:DesignDay,
  {93d22f71-bea8-4216-a842-f68e230e5975}, ! Handle
  MILES_CITY Ann Clg .4% Condns DB=>MWB,  ! Name
  36.9,                                   ! Maximum Dry-Bulb Temperature {C}
  14.9,                                   ! Daily Dry-Bulb Temperature Range {deltaC}
  18.8,                                   ! Humidity Indicating Conditions at Maximum Dry-Bulb {BasedOnField A3}
  92043,                                  ! Barometric Pressure {Pa}
  4.7,                                    ! Wind Speed {m/s}
  140,                                    ! Wind Direction {deg}
  0,                                      ! Sky Clearness
  0,                                      ! Rain Indicator
  0,                                      ! Snow Indicator
  21,                                     ! Day of Month
  7,                                      ! Month
  SummerDesignDay,                        ! Day Type
  0,                                      ! Daylight Saving Time Indicator
  Wetbulb,                                ! Humidity Indicating Type
  ,                                       ! Humidity Indicating Day Schedule Name
  DefaultMultipliers,                     ! Dry-Bulb Temperature Range Modifier Type
  ,                                       ! Dry-Bulb Temperature Range Modifier Schedule Name
  ASHRAETau,                              ! Solar Model Indicator
  ,                                       ! Beam Solar Day Schedule Name
  ,                                       ! Diffuse Solar Day Schedule Name
  0.418,                                  ! ASHRAE Taub {dimensionless}
  2.061;                                  ! ASHRAE Taud {dimensionless}

OS:ComponentData,
  {cb109406-4795-4fa1-95f6-27539825e596}, ! Handle
  Component Data 1,                       ! Name
  {f44bcbb7-1eac-4b07-b91c-44a782c9d84c}, ! UUID
  {152759ae-6b71-4f1e-a36b-94480cc56e4d}, ! Version UUID
  1366308827,                             ! Creation Timestamp
  1366308827,                             ! Version Timestamp
  {93d22f71-bea8-4216-a842-f68e230e5975}; ! Name of Object 1

