
OS:Version,
  {f9c7b89a-ea05-41bb-b6e0-31a394cf4f54}, ! Handle
  0.9.3;                                  ! Version Identifier

OS:SizingPeriod:DesignDay,
  {94834050-9259-4575-a1b0-835837f40fdf}, ! Handle
  Topeka Municipal Ap Ann Clg 1% Condns WB=>MDB, ! Name
  32.2,                                   ! Maximum Dry-Bulb Temperature {C}
  11.3,                                   ! Daily Dry-Bulb Temperature Range {deltaC}
  25.4,                                   ! Humidity Indicating Conditions at Maximum Dry-Bulb {BasedOnField A3}
  98135,                                  ! Barometric Pressure {Pa}
  4.9,                                    ! Wind Speed {m/s}
  200,                                    ! Wind Direction {deg}
  0,                                      ! Sky Clearness
  0,                                      ! Rain Indicator
  0,                                      ! Snow Indicator
  21,                                     ! Day of Month
  7,                                      ! Month
  SummerDesignDay,                        ! Day Type
  0,                                      ! Daylight Saving Time Indicator
  Wetbulb,                                ! Humidity Indicating Type
  ,                                       ! Humidity Indicating Day Schedule Name
  DefaultMultipliers,                     ! Dry-Bulb Temperature Range Modifier Type
  ,                                       ! Dry-Bulb Temperature Range Modifier Schedule Name
  ASHRAETau,                              ! Solar Model Indicator
  ,                                       ! Beam Solar Day Schedule Name
  ,                                       ! Diffuse Solar Day Schedule Name
  0.434,                                  ! ASHRAE Taub {dimensionless}
  2.183;                                  ! ASHRAE Taud {dimensionless}

OS:ComponentData,
  {6967b201-f07d-4b97-a367-2d2d70b711bb}, ! Handle
  Component Data 1,                       ! Name
  {fafcb5ee-b687-44d1-b25a-0e386b9761e0}, ! UUID
  {3359dac0-df77-4ee7-a569-f112bc5ddaf9}, ! Version UUID
  1366307588,                             ! Creation Timestamp
  1366307588,                             ! Version Timestamp
  {94834050-9259-4575-a1b0-835837f40fdf}; ! Name of Object 1

