
OS:Version,
  {e1470efa-4e58-4ef3-b515-ea24971e1595}, ! Handle
  0.9.3;                                  ! Version Identifier

OS:SizingPeriod:DesignDay,
  {689daf6d-24cb-423a-b415-ea5702e07bf7}, ! Handle
  Natchez Hardy Awos Ann Clg 2% Condns WB=>MDB, ! Name
  30.7,                                   ! Maximum Dry-Bulb Temperature {C}
  9.7,                                    ! Daily Dry-Bulb Temperature Range {deltaC}
  25.5,                                   ! Humidity Indicating Conditions at Maximum Dry-Bulb {BasedOnField A3}
  100332,                                 ! Barometric Pressure {Pa}
  2.6,                                    ! Wind Speed {m/s}
  240,                                    ! Wind Direction {deg}
  0,                                      ! Sky Clearness
  0,                                      ! Rain Indicator
  0,                                      ! Snow Indicator
  21,                                     ! Day of Month
  7,                                      ! Month
  SummerDesignDay,                        ! Day Type
  0,                                      ! Daylight Saving Time Indicator
  Wetbulb,                                ! Humidity Indicating Type
  ,                                       ! Humidity Indicating Day Schedule Name
  DefaultMultipliers,                     ! Dry-Bulb Temperature Range Modifier Type
  ,                                       ! Dry-Bulb Temperature Range Modifier Schedule Name
  ASHRAETau,                              ! Solar Model Indicator
  ,                                       ! Beam Solar Day Schedule Name
  ,                                       ! Diffuse Solar Day Schedule Name
  0.519,                                  ! ASHRAE Taub {dimensionless}
  1.903;                                  ! ASHRAE Taud {dimensionless}

OS:ComponentData,
  {5d8b7792-65a4-4cf2-bfbd-68b9054f97e0}, ! Handle
  Component Data 1,                       ! Name
  {57c32138-4d05-4488-945e-faa2db30ec72}, ! UUID
  {41534fbe-ea3b-449d-b689-f69bb0c5a64d}, ! Version UUID
  1366308685,                             ! Creation Timestamp
  1366308685,                             ! Version Timestamp
  {689daf6d-24cb-423a-b415-ea5702e07bf7}; ! Name of Object 1

