
OS:Version,
  {de292288-18b5-4a76-aa0c-de9d7ec49d47}, ! Handle
  0.9.3;                                  ! Version Identifier

OS:SizingPeriod:DesignDay,
  {9b12821c-2ee8-4c62-b4c7-58007fbd53b9}, ! Handle
  Trenton Mercer County Ap Ann Clg 1% Condns Enth=>MDB, ! Name
  29.6,                                   ! Maximum Dry-Bulb Temperature {C}
  10.5,                                   ! Daily Dry-Bulb Temperature Range {deltaC}
  73900,                                  ! Humidity Indicating Conditions at Maximum Dry-Bulb {BasedOnField A3}
  100547,                                 ! Barometric Pressure {Pa}
  4.7,                                    ! Wind Speed {m/s}
  250,                                    ! Wind Direction {deg}
  0,                                      ! Sky Clearness
  0,                                      ! Rain Indicator
  0,                                      ! Snow Indicator
  21,                                     ! Day of Month
  7,                                      ! Month
  SummerDesignDay,                        ! Day Type
  0,                                      ! Daylight Saving Time Indicator
  Enthalpy,                               ! Humidity Indicating Type
  ,                                       ! Humidity Indicating Day Schedule Name
  DefaultMultipliers,                     ! Dry-Bulb Temperature Range Modifier Type
  ,                                       ! Dry-Bulb Temperature Range Modifier Schedule Name
  ASHRAETau,                              ! Solar Model Indicator
  ,                                       ! Beam Solar Day Schedule Name
  ,                                       ! Diffuse Solar Day Schedule Name
  0.527,                                  ! ASHRAE Taub {dimensionless}
  1.83;                                   ! ASHRAE Taud {dimensionless}

OS:ComponentData,
  {3801884a-0b9c-49a3-97f9-6f967b79f1ae}, ! Handle
  Component Data 1,                       ! Name
  {321dea3c-90d5-41e4-804d-5a46fbc948b0}, ! UUID
  {1e7f3cdc-d7d3-403b-823f-0dd5a52d1bdd}, ! Version UUID
  1366309353,                             ! Creation Timestamp
  1366309353,                             ! Version Timestamp
  {9b12821c-2ee8-4c62-b4c7-58007fbd53b9}; ! Name of Object 1

