
OS:Version,
  {5a938a53-70b8-4d5d-acc6-d0045a236dba}, ! Handle
  0.9.3;                                  ! Version Identifier

OS:SizingPeriod:DesignDay,
  {f97230cc-09d3-4ba4-8921-5931aea7dc50}, ! Handle
  Two Harbors Ann Clg .4% Condns DP=>MDB, ! Name
  26.1,                                   ! Maximum Dry-Bulb Temperature {C}
  11.4,                                   ! Daily Dry-Bulb Temperature Range {deltaC}
  22.3,                                   ! Humidity Indicating Conditions at Maximum Dry-Bulb {BasedOnField A3}
  97446,                                  ! Barometric Pressure {Pa}
  4.1,                                    ! Wind Speed {m/s}
  200,                                    ! Wind Direction {deg}
  0,                                      ! Sky Clearness
  0,                                      ! Rain Indicator
  0,                                      ! Snow Indicator
  21,                                     ! Day of Month
  7,                                      ! Month
  SummerDesignDay,                        ! Day Type
  0,                                      ! Daylight Saving Time Indicator
  Dewpoint,                               ! Humidity Indicating Type
  ,                                       ! Humidity Indicating Day Schedule Name
  DefaultMultipliers,                     ! Dry-Bulb Temperature Range Modifier Type
  ,                                       ! Dry-Bulb Temperature Range Modifier Schedule Name
  ASHRAETau,                              ! Solar Model Indicator
  ,                                       ! Beam Solar Day Schedule Name
  ,                                       ! Diffuse Solar Day Schedule Name
  0.408,                                  ! ASHRAE Taub {dimensionless}
  2.186;                                  ! ASHRAE Taud {dimensionless}

OS:ComponentData,
  {3e2a0b13-efa5-49b2-97cf-d62e9b6744ac}, ! Handle
  Component Data 1,                       ! Name
  {d7b417da-23dc-4dc4-a245-4fdc39bedbc7}, ! UUID
  {ac6ecd61-5f6c-4a2a-a18e-c90f654ebe0b}, ! Version UUID
  1366308447,                             ! Creation Timestamp
  1366308447,                             ! Version Timestamp
  {f97230cc-09d3-4ba4-8921-5931aea7dc50}; ! Name of Object 1

