
OS:Version,
  {38714650-3a97-46cb-a3b3-ff0ce012422f}, ! Handle
  0.9.3;                                  ! Version Identifier

OS:SizingPeriod:DesignDay,
  {3101cee3-10e8-483d-9e5d-addda5cf00d8}, ! Handle
  REDMOND Ann Clg .4% Condns DB=>MWB,     ! Name
  33.8,                                   ! Maximum Dry-Bulb Temperature {C}
  20,                                     ! Daily Dry-Bulb Temperature Range {deltaC}
  16.6,                                   ! Humidity Indicating Conditions at Maximum Dry-Bulb {BasedOnField A3}
  90531,                                  ! Barometric Pressure {Pa}
  4.7,                                    ! Wind Speed {m/s}
  350,                                    ! Wind Direction {deg}
  0,                                      ! Sky Clearness
  0,                                      ! Rain Indicator
  0,                                      ! Snow Indicator
  21,                                     ! Day of Month
  7,                                      ! Month
  SummerDesignDay,                        ! Day Type
  0,                                      ! Daylight Saving Time Indicator
  Wetbulb,                                ! Humidity Indicating Type
  ,                                       ! Humidity Indicating Day Schedule Name
  DefaultMultipliers,                     ! Dry-Bulb Temperature Range Modifier Type
  ,                                       ! Dry-Bulb Temperature Range Modifier Schedule Name
  ASHRAETau,                              ! Solar Model Indicator
  ,                                       ! Beam Solar Day Schedule Name
  ,                                       ! Diffuse Solar Day Schedule Name
  0.355,                                  ! ASHRAE Taub {dimensionless}
  2.422;                                  ! ASHRAE Taud {dimensionless}

