
OS:Version,
  {adc688e6-5715-425b-9701-47c9e37e7ea6}, ! Handle
  0.9.3;                                  ! Version Identifier

OS:SizingPeriod:DesignDay,
  {2ed5c095-94ca-423d-b9a3-0e642b9c2339}, ! Handle
  REDMOND Ann Clg .4% Condns DB=>MWB,     ! Name
  33.8,                                   ! Maximum Dry-Bulb Temperature {C}
  20,                                     ! Daily Dry-Bulb Temperature Range {deltaC}
  16.6,                                   ! Humidity Indicating Conditions at Maximum Dry-Bulb {BasedOnField A3}
  90531,                                  ! Barometric Pressure {Pa}
  4.7,                                    ! Wind Speed {m/s}
  350,                                    ! Wind Direction {deg}
  0,                                      ! Sky Clearness
  0,                                      ! Rain Indicator
  0,                                      ! Snow Indicator
  21,                                     ! Day of Month
  7,                                      ! Month
  SummerDesignDay,                        ! Day Type
  0,                                      ! Daylight Saving Time Indicator
  Wetbulb,                                ! Humidity Indicating Type
  ,                                       ! Humidity Indicating Day Schedule Name
  DefaultMultipliers,                     ! Dry-Bulb Temperature Range Modifier Type
  ,                                       ! Dry-Bulb Temperature Range Modifier Schedule Name
  ASHRAETau,                              ! Solar Model Indicator
  ,                                       ! Beam Solar Day Schedule Name
  ,                                       ! Diffuse Solar Day Schedule Name
  0.355,                                  ! ASHRAE Taub {dimensionless}
  2.422;                                  ! ASHRAE Taud {dimensionless}

OS:ComponentData,
  {d757da69-7701-424b-b601-e0a0b56f6dfe}, ! Handle
  Component Data 1,                       ! Name
  {493b0bad-cef2-4621-9cf6-4d567a01e899}, ! UUID
  {885b2b8d-7f35-44bd-88da-93334e685466}, ! Version UUID
  1366310102,                             ! Creation Timestamp
  1366310102,                             ! Version Timestamp
  {2ed5c095-94ca-423d-b9a3-0e642b9c2339}; ! Name of Object 1

