
OS:Version,
  {1ef4cc30-43d4-4f02-981a-2b83409afa30}, ! Handle
  0.9.3;                                  ! Version Identifier

OS:SizingPeriod:DesignDay,
  {3a597a18-840a-4491-960c-b8d805496c95}, ! Handle
  Unalakleet Field Ann Hum_n 99.6% Condns DP=>MCDB, ! Name
  -32.1,                                  ! Maximum Dry-Bulb Temperature {C}
  0,                                      ! Daily Dry-Bulb Temperature Range {deltaC}
  -38.1,                                  ! Humidity Indicating Conditions at Maximum Dry-Bulb {BasedOnField A3}
  101265,                                 ! Barometric Pressure {Pa}
  1.8,                                    ! Wind Speed {m/s}
  130,                                    ! Wind Direction {deg}
  0,                                      ! Sky Clearness
  0,                                      ! Rain Indicator
  0,                                      ! Snow Indicator
  21,                                     ! Day of Month
  1,                                      ! Month
  WinterDesignDay,                        ! Day Type
  0,                                      ! Daylight Saving Time Indicator
  Dewpoint,                               ! Humidity Indicating Type
  ,                                       ! Humidity Indicating Day Schedule Name
  DefaultMultipliers,                     ! Dry-Bulb Temperature Range Modifier Type
  ,                                       ! Dry-Bulb Temperature Range Modifier Schedule Name
  ASHRAEClearSky;                         ! Solar Model Indicator

OS:ComponentData,
  {4475aec5-0b70-4765-a205-323b0ab4ba66}, ! Handle
  Component Data 1,                       ! Name
  {137eb1ca-1a6f-4c29-808a-938df957a6af}, ! UUID
  {4745359c-0588-4862-a0ff-e54fd4f8c43e}, ! Version UUID
  1366305599,                             ! Creation Timestamp
  1366305599,                             ! Version Timestamp
  {3a597a18-840a-4491-960c-b8d805496c95}; ! Name of Object 1

