
OS:Version,
  {ee3f64b1-99bf-4252-a0d8-94a5f17496c7}, ! Handle
  0.9.3;                                  ! Version Identifier

OS:SizingPeriod:DesignDay,
  {972a21b9-2bb1-40ee-a6e2-17ad56fb1857}, ! Handle
  YAKIMA Ann Clg 2% Condns DP=>MDB,       ! Name
  23.2,                                   ! Maximum Dry-Bulb Temperature {C}
  17.9,                                   ! Daily Dry-Bulb Temperature Range {deltaC}
  13.3,                                   ! Humidity Indicating Conditions at Maximum Dry-Bulb {BasedOnField A3}
  97481,                                  ! Barometric Pressure {Pa}
  2.7,                                    ! Wind Speed {m/s}
  100,                                    ! Wind Direction {deg}
  0,                                      ! Sky Clearness
  0,                                      ! Rain Indicator
  0,                                      ! Snow Indicator
  21,                                     ! Day of Month
  7,                                      ! Month
  SummerDesignDay,                        ! Day Type
  0,                                      ! Daylight Saving Time Indicator
  Dewpoint,                               ! Humidity Indicating Type
  ,                                       ! Humidity Indicating Day Schedule Name
  DefaultMultipliers,                     ! Dry-Bulb Temperature Range Modifier Type
  ,                                       ! Dry-Bulb Temperature Range Modifier Schedule Name
  ASHRAETau,                              ! Solar Model Indicator
  ,                                       ! Beam Solar Day Schedule Name
  ,                                       ! Diffuse Solar Day Schedule Name
  0.395,                                  ! ASHRAE Taub {dimensionless}
  2.249;                                  ! ASHRAE Taud {dimensionless}

OS:ComponentData,
  {491112f4-4dbe-439d-8abd-987e3628a33e}, ! Handle
  Component Data 1,                       ! Name
  {d80446c2-3e78-4d23-9795-042ed74ee1dd}, ! UUID
  {c3a09027-487b-4c8c-b57a-6e9ec88db4f7}, ! Version UUID
  1366311443,                             ! Creation Timestamp
  1366311443,                             ! Version Timestamp
  {972a21b9-2bb1-40ee-a6e2-17ad56fb1857}; ! Name of Object 1

