
OS:Version,
  {964c8835-a658-45f1-854a-d6d4686943f4}, ! Handle
  0.9.3;                                  ! Version Identifier

OS:SizingPeriod:DesignDay,
  {386ec234-c499-4291-96ab-9c5d3364a3f7}, ! Handle
  O Neill Baker Field Ann Htg Wind 99% Condns WS=>MCDB, ! Name
  -7.8,                                   ! Maximum Dry-Bulb Temperature {C}
  0,                                      ! Daily Dry-Bulb Temperature Range {deltaC}
  -7.8,                                   ! Humidity Indicating Conditions at Maximum Dry-Bulb {BasedOnField A3}
  94106,                                  ! Barometric Pressure {Pa}
  14.9,                                   ! Wind Speed {m/s}
  320,                                    ! Wind Direction {deg}
  0,                                      ! Sky Clearness
  0,                                      ! Rain Indicator
  0,                                      ! Snow Indicator
  21,                                     ! Day of Month
  1,                                      ! Month
  WinterDesignDay,                        ! Day Type
  0,                                      ! Daylight Saving Time Indicator
  Wetbulb,                                ! Humidity Indicating Type
  ,                                       ! Humidity Indicating Day Schedule Name
  DefaultMultipliers,                     ! Dry-Bulb Temperature Range Modifier Type
  ,                                       ! Dry-Bulb Temperature Range Modifier Schedule Name
  ASHRAEClearSky;                         ! Solar Model Indicator

OS:ComponentData,
  {3f20cf06-cec1-4240-8790-a09db1cf7819}, ! Handle
  Component Data 1,                       ! Name
  {47ba8084-b530-4ce0-84ca-83ea4c82454f}, ! UUID
  {ef898d81-fb27-4c29-b233-a4f3104d68e2}, ! Version UUID
  1366309184,                             ! Creation Timestamp
  1366309184,                             ! Version Timestamp
  {386ec234-c499-4291-96ab-9c5d3364a3f7}; ! Name of Object 1

