
OS:Version,
  {2033cc5d-f281-4078-9f85-7ca6113fcadd}, ! Handle
  0.9.3;                                  ! Version Identifier

OS:SizingPeriod:DesignDay,
  {7dc3d600-620a-47ca-8794-e2ae6e26257e}, ! Handle
  Pueblo Memorial Ap Ann Clg .4% Condns WB=>MDB, ! Name
  29.5,                                   ! Maximum Dry-Bulb Temperature {C}
  18,                                     ! Daily Dry-Bulb Temperature Range {deltaC}
  19.6,                                   ! Humidity Indicating Conditions at Maximum Dry-Bulb {BasedOnField A3}
  85306,                                  ! Barometric Pressure {Pa}
  5.1,                                    ! Wind Speed {m/s}
  120,                                    ! Wind Direction {deg}
  0,                                      ! Sky Clearness
  0,                                      ! Rain Indicator
  0,                                      ! Snow Indicator
  21,                                     ! Day of Month
  7,                                      ! Month
  SummerDesignDay,                        ! Day Type
  0,                                      ! Daylight Saving Time Indicator
  Wetbulb,                                ! Humidity Indicating Type
  ,                                       ! Humidity Indicating Day Schedule Name
  DefaultMultipliers,                     ! Dry-Bulb Temperature Range Modifier Type
  ,                                       ! Dry-Bulb Temperature Range Modifier Schedule Name
  ASHRAETau,                              ! Solar Model Indicator
  ,                                       ! Beam Solar Day Schedule Name
  ,                                       ! Diffuse Solar Day Schedule Name
  0.435,                                  ! ASHRAE Taub {dimensionless}
  1.969;                                  ! ASHRAE Taud {dimensionless}

OS:ComponentData,
  {89d38903-93d7-46c8-a442-97295e2f1237}, ! Handle
  Component Data 1,                       ! Name
  {0fd6cf62-fc4e-43db-8baf-e6b4e171efcc}, ! UUID
  {25213ed2-7aa0-4423-94e8-a1cb61238010}, ! Version UUID
  1366306731,                             ! Creation Timestamp
  1366306731,                             ! Version Timestamp
  {7dc3d600-620a-47ca-8794-e2ae6e26257e}; ! Name of Object 1

