
OS:Version,
  {b90d4f65-e1e9-425a-981c-6c2ce1bd9a14}, ! Handle
  0.9.3;                                  ! Version Identifier

OS:SizingPeriod:DesignDay,
  {f7dc821a-86ae-44f4-a71d-e3cb70306fb5}, ! Handle
  MOLINE Ann Clg .4% Condns DP=>MDB,      ! Name
  29.6,                                   ! Maximum Dry-Bulb Temperature {C}
  11.1,                                   ! Daily Dry-Bulb Temperature Range {deltaC}
  24.5,                                   ! Humidity Indicating Conditions at Maximum Dry-Bulb {BasedOnField A3}
  99169,                                  ! Barometric Pressure {Pa}
  4.9,                                    ! Wind Speed {m/s}
  210,                                    ! Wind Direction {deg}
  0,                                      ! Sky Clearness
  0,                                      ! Rain Indicator
  0,                                      ! Snow Indicator
  21,                                     ! Day of Month
  7,                                      ! Month
  SummerDesignDay,                        ! Day Type
  0,                                      ! Daylight Saving Time Indicator
  Dewpoint,                               ! Humidity Indicating Type
  ,                                       ! Humidity Indicating Day Schedule Name
  DefaultMultipliers,                     ! Dry-Bulb Temperature Range Modifier Type
  ,                                       ! Dry-Bulb Temperature Range Modifier Schedule Name
  ASHRAETau,                              ! Solar Model Indicator
  ,                                       ! Beam Solar Day Schedule Name
  ,                                       ! Diffuse Solar Day Schedule Name
  0.449,                                  ! ASHRAE Taub {dimensionless}
  2.068;                                  ! ASHRAE Taud {dimensionless}

OS:ComponentData,
  {add95262-55c5-4909-b37d-e9c3b933999f}, ! Handle
  Component Data 1,                       ! Name
  {39455aac-317d-48e0-9450-e86b073827f2}, ! UUID
  {9d267c76-4c12-46b1-b030-eaf450d5086f}, ! Version UUID
  1366307373,                             ! Creation Timestamp
  1366307373,                             ! Version Timestamp
  {f7dc821a-86ae-44f4-a71d-e3cb70306fb5}; ! Name of Object 1

