
OS:Version,
  {d0ce74d9-0fcb-46d6-b890-561563f6dabf}, ! Handle
  0.9.3;                                  ! Version Identifier

OS:SizingPeriod:DesignDay,
  {d8014810-112a-4e7d-9999-cbfc61e3e8d6}, ! Handle
  San Diego Lindbergh Field Ann Clg 1% Condns DP=>MDB, ! Name
  24.2,                                   ! Maximum Dry-Bulb Temperature {C}
  4.9,                                    ! Daily Dry-Bulb Temperature Range {deltaC}
  20.5,                                   ! Humidity Indicating Conditions at Maximum Dry-Bulb {BasedOnField A3}
  101277,                                 ! Barometric Pressure {Pa}
  4.6,                                    ! Wind Speed {m/s}
  300,                                    ! Wind Direction {deg}
  0,                                      ! Sky Clearness
  0,                                      ! Rain Indicator
  0,                                      ! Snow Indicator
  21,                                     ! Day of Month
  8,                                      ! Month
  SummerDesignDay,                        ! Day Type
  0,                                      ! Daylight Saving Time Indicator
  Dewpoint,                               ! Humidity Indicating Type
  ,                                       ! Humidity Indicating Day Schedule Name
  DefaultMultipliers,                     ! Dry-Bulb Temperature Range Modifier Type
  ,                                       ! Dry-Bulb Temperature Range Modifier Schedule Name
  ASHRAETau,                              ! Solar Model Indicator
  ,                                       ! Beam Solar Day Schedule Name
  ,                                       ! Diffuse Solar Day Schedule Name
  0.426,                                  ! ASHRAE Taub {dimensionless}
  2.214;                                  ! ASHRAE Taud {dimensionless}

OS:ComponentData,
  {ce4f378c-d05f-4045-a868-2f934e45583e}, ! Handle
  Component Data 1,                       ! Name
  {f2f3bdb2-6cbe-4d99-8d89-588a73b6e979}, ! UUID
  {7a9c3f32-8d01-4e05-9457-e3f0f2c95ebe}, ! Version UUID
  1366306576,                             ! Creation Timestamp
  1366306576,                             ! Version Timestamp
  {d8014810-112a-4e7d-9999-cbfc61e3e8d6}; ! Name of Object 1

