
OS:Version,
  {13abc5ff-e241-4bbb-bc7d-38214df0bcf8}, ! Handle
  0.9.3;                                  ! Version Identifier

OS:SizingPeriod:DesignDay,
  {c67014c5-0643-4bfc-b17f-4fbdd443e5e4}, ! Handle
  Midland/Odessa Ann Hum_n 99% Condns DP=>MCDB, ! Name
  4.3,                                    ! Maximum Dry-Bulb Temperature {C}
  0,                                      ! Daily Dry-Bulb Temperature Range {deltaC}
  -14.7,                                  ! Humidity Indicating Conditions at Maximum Dry-Bulb {BasedOnField A3}
  91279,                                  ! Barometric Pressure {Pa}
  4.1,                                    ! Wind Speed {m/s}
  40,                                     ! Wind Direction {deg}
  0,                                      ! Sky Clearness
  0,                                      ! Rain Indicator
  0,                                      ! Snow Indicator
  21,                                     ! Day of Month
  12,                                     ! Month
  WinterDesignDay,                        ! Day Type
  0,                                      ! Daylight Saving Time Indicator
  Dewpoint,                               ! Humidity Indicating Type
  ,                                       ! Humidity Indicating Day Schedule Name
  DefaultMultipliers,                     ! Dry-Bulb Temperature Range Modifier Type
  ,                                       ! Dry-Bulb Temperature Range Modifier Schedule Name
  ASHRAEClearSky;                         ! Solar Model Indicator

OS:ComponentData,
  {1805a24d-6edf-43ec-9907-7368e12cb32a}, ! Handle
  Component Data 1,                       ! Name
  {dc47c04a-6bae-4d76-bf76-68ea0f76b7ad}, ! UUID
  {47bdf90f-043d-4ed8-bf42-9c1a40798eaf}, ! Version UUID
  1366310830,                             ! Creation Timestamp
  1366310830,                             ! Version Timestamp
  {c67014c5-0643-4bfc-b17f-4fbdd443e5e4}; ! Name of Object 1

