
OS:Version,
  {51dd0843-c3ab-4621-83fe-ea37e580a41f}, ! Handle
  0.9.3;                                  ! Version Identifier

OS:SizingPeriod:DesignDay,
  {11bef0e8-acdf-4016-b2e1-4b68c319cc59}, ! Handle
  Oklahoma City Wiley Ann Htg 99% Condns DB, ! Name
  -7.8,                                   ! Maximum Dry-Bulb Temperature {C}
  0,                                      ! Daily Dry-Bulb Temperature Range {deltaC}
  -7.8,                                   ! Humidity Indicating Conditions at Maximum Dry-Bulb {BasedOnField A3}
  96657,                                  ! Barometric Pressure {Pa}
  5.1,                                    ! Wind Speed {m/s}
  0,                                      ! Wind Direction {deg}
  0,                                      ! Sky Clearness
  0,                                      ! Rain Indicator
  0,                                      ! Snow Indicator
  21,                                     ! Day of Month
  1,                                      ! Month
  WinterDesignDay,                        ! Day Type
  0,                                      ! Daylight Saving Time Indicator
  Wetbulb,                                ! Humidity Indicating Type
  ,                                       ! Humidity Indicating Day Schedule Name
  DefaultMultipliers,                     ! Dry-Bulb Temperature Range Modifier Type
  ,                                       ! Dry-Bulb Temperature Range Modifier Schedule Name
  ASHRAEClearSky;                         ! Solar Model Indicator

OS:ComponentData,
  {29dfba6d-9627-4e6f-a08d-5ad397f4ad97}, ! Handle
  Component Data 1,                       ! Name
  {b89d01fd-3c12-4a35-ae05-43528526bf9b}, ! UUID
  {ccaa2011-c063-4f07-bdfb-abcab0028810}, ! Version UUID
  1366309916,                             ! Creation Timestamp
  1366309916,                             ! Version Timestamp
  {11bef0e8-acdf-4016-b2e1-4b68c319cc59}; ! Name of Object 1

