
OS:Version,
  {387524d0-b89e-410f-9e95-33d511ec1dc1}, ! Handle
  0.9.3;                                  ! Version Identifier

OS:SizingPeriod:DesignDay,
  {3f5f5dd0-f121-42ec-8bf0-be260e5a748c}, ! Handle
  Norfolk Karl Stefan Mem Arpt Ann Htg 99.6% Condns DB, ! Name
  -22.5,                                  ! Maximum Dry-Bulb Temperature {C}
  0,                                      ! Daily Dry-Bulb Temperature Range {deltaC}
  -22.5,                                  ! Humidity Indicating Conditions at Maximum Dry-Bulb {BasedOnField A3}
  95782,                                  ! Barometric Pressure {Pa}
  4.9,                                    ! Wind Speed {m/s}
  320,                                    ! Wind Direction {deg}
  0,                                      ! Sky Clearness
  0,                                      ! Rain Indicator
  0,                                      ! Snow Indicator
  21,                                     ! Day of Month
  1,                                      ! Month
  WinterDesignDay,                        ! Day Type
  0,                                      ! Daylight Saving Time Indicator
  Wetbulb,                                ! Humidity Indicating Type
  ,                                       ! Humidity Indicating Day Schedule Name
  DefaultMultipliers,                     ! Dry-Bulb Temperature Range Modifier Type
  ,                                       ! Dry-Bulb Temperature Range Modifier Schedule Name
  ASHRAEClearSky;                         ! Solar Model Indicator

OS:ComponentData,
  {17a09a92-7c34-4af0-b9b4-2d103964ff8b}, ! Handle
  Component Data 1,                       ! Name
  {7bbdfc3c-6ad7-4b20-bb45-8a009ef3bc84}, ! UUID
  {d03c9a6d-ce52-4200-9f70-3107769f4a5c}, ! Version UUID
  1366309147,                             ! Creation Timestamp
  1366309147,                             ! Version Timestamp
  {3f5f5dd0-f121-42ec-8bf0-be260e5a748c}; ! Name of Object 1

