
OS:Version,
  {e0580b85-a75d-4867-a1f0-e0ac8c45bbf1}, ! Handle
  0.9.3;                                  ! Version Identifier

OS:SizingPeriod:DesignDay,
  {50f79b95-b0a6-4fb0-ae1a-4ac4e896736a}, ! Handle
  San Angelo Ann Htg 99.6% Condns DB,     ! Name
  -6.6,                                   ! Maximum Dry-Bulb Temperature {C}
  0,                                      ! Daily Dry-Bulb Temperature Range {deltaC}
  -6.6,                                   ! Humidity Indicating Conditions at Maximum Dry-Bulb {BasedOnField A3}
  94526,                                  ! Barometric Pressure {Pa}
  4.1,                                    ! Wind Speed {m/s}
  40,                                     ! Wind Direction {deg}
  0,                                      ! Sky Clearness
  0,                                      ! Rain Indicator
  0,                                      ! Snow Indicator
  21,                                     ! Day of Month
  1,                                      ! Month
  WinterDesignDay,                        ! Day Type
  0,                                      ! Daylight Saving Time Indicator
  Wetbulb,                                ! Humidity Indicating Type
  ,                                       ! Humidity Indicating Day Schedule Name
  DefaultMultipliers,                     ! Dry-Bulb Temperature Range Modifier Type
  ,                                       ! Dry-Bulb Temperature Range Modifier Schedule Name
  ASHRAEClearSky;                         ! Solar Model Indicator

OS:ComponentData,
  {cfecb1ba-041a-4744-9260-16e431eaab24}, ! Handle
  Component Data 1,                       ! Name
  {96e2dd8a-9ba8-414d-a3b9-8e159819cc5d}, ! UUID
  {fb34ab3d-6bd2-4c46-a376-7192cec44d1e}, ! Version UUID
  1366310867,                             ! Creation Timestamp
  1366310867,                             ! Version Timestamp
  {50f79b95-b0a6-4fb0-ae1a-4ac4e896736a}; ! Name of Object 1

