
OS:Version,
  {7c28fa23-4d68-403b-97ec-d8623e43465b}, ! Handle
  0.9.3;                                  ! Version Identifier

OS:SizingPeriod:DesignDay,
  {6996535f-3ad3-45b3-b45f-542c7495b38b}, ! Handle
  Winslow Municipal Ap Ann Clg 1% Condns DP=>MDB, ! Name
  20.7,                                   ! Maximum Dry-Bulb Temperature {C}
  16.2,                                   ! Daily Dry-Bulb Temperature Range {deltaC}
  15.6,                                   ! Humidity Indicating Conditions at Maximum Dry-Bulb {BasedOnField A3}
  84660,                                  ! Barometric Pressure {Pa}
  4.7,                                    ! Wind Speed {m/s}
  260,                                    ! Wind Direction {deg}
  0,                                      ! Sky Clearness
  0,                                      ! Rain Indicator
  0,                                      ! Snow Indicator
  21,                                     ! Day of Month
  7,                                      ! Month
  SummerDesignDay,                        ! Day Type
  0,                                      ! Daylight Saving Time Indicator
  Dewpoint,                               ! Humidity Indicating Type
  ,                                       ! Humidity Indicating Day Schedule Name
  DefaultMultipliers,                     ! Dry-Bulb Temperature Range Modifier Type
  ,                                       ! Dry-Bulb Temperature Range Modifier Schedule Name
  ASHRAETau,                              ! Solar Model Indicator
  ,                                       ! Beam Solar Day Schedule Name
  ,                                       ! Diffuse Solar Day Schedule Name
  0.444,                                  ! ASHRAE Taub {dimensionless}
  1.959;                                  ! ASHRAE Taud {dimensionless}

