
OS:Version,
  {cfd77850-ec77-4364-a829-4f4584b2dee0}, ! Handle
  0.9.3;                                  ! Version Identifier

OS:SizingPeriod:DesignDay,
  {cc24de5d-533c-4f70-85ac-029b7071e6f0}, ! Handle
  Winslow Municipal Ap Ann Clg 1% Condns DP=>MDB, ! Name
  20.7,                                   ! Maximum Dry-Bulb Temperature {C}
  16.2,                                   ! Daily Dry-Bulb Temperature Range {deltaC}
  15.6,                                   ! Humidity Indicating Conditions at Maximum Dry-Bulb {BasedOnField A3}
  84660,                                  ! Barometric Pressure {Pa}
  4.7,                                    ! Wind Speed {m/s}
  260,                                    ! Wind Direction {deg}
  0,                                      ! Sky Clearness
  0,                                      ! Rain Indicator
  0,                                      ! Snow Indicator
  21,                                     ! Day of Month
  7,                                      ! Month
  SummerDesignDay,                        ! Day Type
  0,                                      ! Daylight Saving Time Indicator
  Dewpoint,                               ! Humidity Indicating Type
  ,                                       ! Humidity Indicating Day Schedule Name
  DefaultMultipliers,                     ! Dry-Bulb Temperature Range Modifier Type
  ,                                       ! Dry-Bulb Temperature Range Modifier Schedule Name
  ASHRAETau,                              ! Solar Model Indicator
  ,                                       ! Beam Solar Day Schedule Name
  ,                                       ! Diffuse Solar Day Schedule Name
  0.444,                                  ! ASHRAE Taub {dimensionless}
  1.959;                                  ! ASHRAE Taud {dimensionless}

OS:ComponentData,
  {46148c71-8a7b-4e14-a7a5-41c5f34aa32a}, ! Handle
  Component Data 1,                       ! Name
  {c7d23c8a-ec9c-4188-bedb-04796521bbd3}, ! UUID
  {3b80d3dc-5d4d-407c-9b2f-bbab372fe671}, ! Version UUID
  1366306331,                             ! Creation Timestamp
  1366306331,                             ! Version Timestamp
  {cc24de5d-533c-4f70-85ac-029b7071e6f0}; ! Name of Object 1

