
OS:Version,
  {f7e34f29-9f58-47bb-9cf8-26b302bddfb1}, ! Handle
  0.9.3;                                  ! Version Identifier

OS:SizingPeriod:DesignDay,
  {a8d0a5f9-4cd7-4ae7-a03f-cbf54b5bfc30}, ! Handle
  Yakima Ann Hum_n 99% Condns DP=>MCDB,   ! Name
  -9.3,                                   ! Maximum Dry-Bulb Temperature {C}
  0,                                      ! Daily Dry-Bulb Temperature Range {deltaC}
  -14.8,                                  ! Humidity Indicating Conditions at Maximum Dry-Bulb {BasedOnField A3}
  97481,                                  ! Barometric Pressure {Pa}
  2.4,                                    ! Wind Speed {m/s}
  280,                                    ! Wind Direction {deg}
  0,                                      ! Sky Clearness
  0,                                      ! Rain Indicator
  0,                                      ! Snow Indicator
  21,                                     ! Day of Month
  12,                                     ! Month
  WinterDesignDay,                        ! Day Type
  0,                                      ! Daylight Saving Time Indicator
  Dewpoint,                               ! Humidity Indicating Type
  ,                                       ! Humidity Indicating Day Schedule Name
  DefaultMultipliers,                     ! Dry-Bulb Temperature Range Modifier Type
  ,                                       ! Dry-Bulb Temperature Range Modifier Schedule Name
  ASHRAEClearSky;                         ! Solar Model Indicator

OS:ComponentData,
  {275b5093-35df-4bef-ba63-366c4616fbef}, ! Handle
  Component Data 1,                       ! Name
  {77d419e9-1fca-47e0-b104-25a4e2638a8a}, ! UUID
  {0d81ed2c-426f-4042-8f26-1af9dc9d7c8a}, ! Version UUID
  1366311447,                             ! Creation Timestamp
  1366311447,                             ! Version Timestamp
  {a8d0a5f9-4cd7-4ae7-a03f-cbf54b5bfc30}; ! Name of Object 1

