
OS:Version,
  {ba227ccd-6a9e-4467-a6f4-68c1a730d0de}, ! Handle
  0.9.3;                                  ! Version Identifier

OS:SizingPeriod:DesignDay,
  {b1110efe-a6d9-468f-953f-c3a9a18fe437}, ! Handle
  Manitowac Muni Awos Ann Clg .4% Condns Enth=>MDB, ! Name
  28.4,                                   ! Maximum Dry-Bulb Temperature {C}
  9.4,                                    ! Daily Dry-Bulb Temperature Range {deltaC}
  71500,                                  ! Humidity Indicating Conditions at Maximum Dry-Bulb {BasedOnField A3}
  98969,                                  ! Barometric Pressure {Pa}
  5,                                      ! Wind Speed {m/s}
  250,                                    ! Wind Direction {deg}
  0,                                      ! Sky Clearness
  0,                                      ! Rain Indicator
  0,                                      ! Snow Indicator
  21,                                     ! Day of Month
  7,                                      ! Month
  SummerDesignDay,                        ! Day Type
  0,                                      ! Daylight Saving Time Indicator
  Enthalpy,                               ! Humidity Indicating Type
  ,                                       ! Humidity Indicating Day Schedule Name
  DefaultMultipliers,                     ! Dry-Bulb Temperature Range Modifier Type
  ,                                       ! Dry-Bulb Temperature Range Modifier Schedule Name
  ASHRAETau,                              ! Solar Model Indicator
  ,                                       ! Beam Solar Day Schedule Name
  ,                                       ! Diffuse Solar Day Schedule Name
  0.438,                                  ! ASHRAE Taub {dimensionless}
  2.104;                                  ! ASHRAE Taud {dimensionless}

OS:ComponentData,
  {d428d621-4fd0-4479-939c-2f7a105d764d}, ! Handle
  Component Data 1,                       ! Name
  {e38fe979-c1ae-43eb-9455-0892ff125ef6}, ! UUID
  {7c3364f7-3a7a-4c2a-b166-d38ddc210162}, ! Version UUID
  1366311538,                             ! Creation Timestamp
  1366311538,                             ! Version Timestamp
  {b1110efe-a6d9-468f-953f-c3a9a18fe437}; ! Name of Object 1

