
OS:Version,
  {fb06816e-b790-4549-90a8-0d46f8f84b79}, ! Handle
  0.9.3;                                  ! Version Identifier

OS:SizingPeriod:DesignDay,
  {88686cd5-4675-4925-82c0-e8481072571b}, ! Handle
  Shreveport Ann Clg .4% Condns DB=>MWB,  ! Name
  36.6,                                   ! Maximum Dry-Bulb Temperature {C}
  10.7,                                   ! Daily Dry-Bulb Temperature Range {deltaC}
  24.6,                                   ! Humidity Indicating Conditions at Maximum Dry-Bulb {BasedOnField A3}
  100380,                                 ! Barometric Pressure {Pa}
  3.3,                                    ! Wind Speed {m/s}
  180,                                    ! Wind Direction {deg}
  0,                                      ! Sky Clearness
  0,                                      ! Rain Indicator
  0,                                      ! Snow Indicator
  21,                                     ! Day of Month
  7,                                      ! Month
  SummerDesignDay,                        ! Day Type
  0,                                      ! Daylight Saving Time Indicator
  Wetbulb,                                ! Humidity Indicating Type
  ,                                       ! Humidity Indicating Day Schedule Name
  DefaultMultipliers,                     ! Dry-Bulb Temperature Range Modifier Type
  ,                                       ! Dry-Bulb Temperature Range Modifier Schedule Name
  ASHRAETau,                              ! Solar Model Indicator
  ,                                       ! Beam Solar Day Schedule Name
  ,                                       ! Diffuse Solar Day Schedule Name
  0.489,                                  ! ASHRAE Taub {dimensionless}
  2.014;                                  ! ASHRAE Taud {dimensionless}

OS:ComponentData,
  {956b5f23-bb15-4921-877c-94a8ed7f2425}, ! Handle
  Component Data 1,                       ! Name
  {605af866-f003-4b95-bfa3-14747c1834dd}, ! UUID
  {08286170-e975-456a-b3b8-0ae979e193a9}, ! Version UUID
  1366307769,                             ! Creation Timestamp
  1366307769,                             ! Version Timestamp
  {88686cd5-4675-4925-82c0-e8481072571b}; ! Name of Object 1

