
OS:Version,
  {eabf4ee0-434c-4e80-a008-a3f2b6a21c52}, ! Handle
  0.9.3;                                  ! Version Identifier

OS:SizingPeriod:DesignDay,
  {50cf9394-5a6c-4b33-936a-86ef72eb7f5e}, ! Handle
  Republic Ann Clg 2% Condns WB=>MDB,     ! Name
  26.9,                                   ! Maximum Dry-Bulb Temperature {C}
  8,                                      ! Daily Dry-Bulb Temperature Range {deltaC}
  23.5,                                   ! Humidity Indicating Conditions at Maximum Dry-Bulb {BasedOnField A3}
  101013,                                 ! Barometric Pressure {Pa}
  5.5,                                    ! Wind Speed {m/s}
  210,                                    ! Wind Direction {deg}
  0,                                      ! Sky Clearness
  0,                                      ! Rain Indicator
  0,                                      ! Snow Indicator
  21,                                     ! Day of Month
  7,                                      ! Month
  SummerDesignDay,                        ! Day Type
  0,                                      ! Daylight Saving Time Indicator
  Wetbulb,                                ! Humidity Indicating Type
  ,                                       ! Humidity Indicating Day Schedule Name
  DefaultMultipliers,                     ! Dry-Bulb Temperature Range Modifier Type
  ,                                       ! Dry-Bulb Temperature Range Modifier Schedule Name
  ASHRAETau,                              ! Solar Model Indicator
  ,                                       ! Beam Solar Day Schedule Name
  ,                                       ! Diffuse Solar Day Schedule Name
  0.541,                                  ! ASHRAE Taub {dimensionless}
  1.799;                                  ! ASHRAE Taud {dimensionless}

OS:ComponentData,
  {f4b6ca56-2bc8-4b77-8838-511bd9ea2693}, ! Handle
  Component Data 1,                       ! Name
  {52e7f1b0-c6ca-4625-bcfd-dddf52a2410d}, ! UUID
  {0301a76c-49c0-418f-bf20-bc61152b6561}, ! Version UUID
  1366309709,                             ! Creation Timestamp
  1366309709,                             ! Version Timestamp
  {50cf9394-5a6c-4b33-936a-86ef72eb7f5e}; ! Name of Object 1

