
OS:Version,
  {7e4deafc-1b1a-4251-9846-1b2bde205cec}, ! Handle
  0.9.3;                                  ! Version Identifier

OS:SizingPeriod:DesignDay,
  {02164025-5e6b-48db-b294-b492baefabf6}, ! Handle
  Naval Air Station Ann Hum_n 99% Condns DP=>MCDB, ! Name
  -14.8,                                  ! Maximum Dry-Bulb Temperature {C}
  0,                                      ! Daily Dry-Bulb Temperature Range {deltaC}
  -25.7,                                  ! Humidity Indicating Conditions at Maximum Dry-Bulb {BasedOnField A3}
  101073,                                 ! Barometric Pressure {Pa}
  2,                                      ! Wind Speed {m/s}
  0,                                      ! Wind Direction {deg}
  0,                                      ! Sky Clearness
  0,                                      ! Rain Indicator
  0,                                      ! Snow Indicator
  21,                                     ! Day of Month
  1,                                      ! Month
  WinterDesignDay,                        ! Day Type
  0,                                      ! Daylight Saving Time Indicator
  Dewpoint,                               ! Humidity Indicating Type
  ,                                       ! Humidity Indicating Day Schedule Name
  DefaultMultipliers,                     ! Dry-Bulb Temperature Range Modifier Type
  ,                                       ! Dry-Bulb Temperature Range Modifier Schedule Name
  ASHRAEClearSky;                         ! Solar Model Indicator

OS:ComponentData,
  {a334de06-6a28-4d58-a5ec-04c0c5b275ac}, ! Handle
  Component Data 1,                       ! Name
  {6912b99d-9706-4a8e-9612-95336f3eebeb}, ! UUID
  {b10a327d-7a24-49d7-9631-e6eb1a481998}, ! Version UUID
  1366307882,                             ! Creation Timestamp
  1366307882,                             ! Version Timestamp
  {02164025-5e6b-48db-b294-b492baefabf6}; ! Name of Object 1

