
OS:Version,
  {88e1975c-b952-434c-8178-c1fe8aefed06}, ! Handle
  0.9.3;                                  ! Version Identifier

OS:SizingPeriod:DesignDay,
  {303c9eb0-59fc-4ba3-80fa-19449161f268}, ! Handle
  Molokai  Amos Ann Clg 1% Condns Enth=>MDB, ! Name
  28.1,                                   ! Maximum Dry-Bulb Temperature {C}
  7,                                      ! Daily Dry-Bulb Temperature Range {deltaC}
  72400,                                  ! Humidity Indicating Conditions at Maximum Dry-Bulb {BasedOnField A3}
  99690,                                  ! Barometric Pressure {Pa}
  6.1,                                    ! Wind Speed {m/s}
  60,                                     ! Wind Direction {deg}
  0,                                      ! Sky Clearness
  0,                                      ! Rain Indicator
  0,                                      ! Snow Indicator
  21,                                     ! Day of Month
  8,                                      ! Month
  SummerDesignDay,                        ! Day Type
  0,                                      ! Daylight Saving Time Indicator
  Enthalpy,                               ! Humidity Indicating Type
  ,                                       ! Humidity Indicating Day Schedule Name
  DefaultMultipliers,                     ! Dry-Bulb Temperature Range Modifier Type
  ,                                       ! Dry-Bulb Temperature Range Modifier Schedule Name
  ASHRAETau,                              ! Solar Model Indicator
  ,                                       ! Beam Solar Day Schedule Name
  ,                                       ! Diffuse Solar Day Schedule Name
  0.373,                                  ! ASHRAE Taub {dimensionless}
  2.559;                                  ! ASHRAE Taud {dimensionless}

OS:ComponentData,
  {261ba9fa-1909-4369-8bea-0987a88e3c94}, ! Handle
  Component Data 1,                       ! Name
  {0da7a4bb-e366-4982-8bd3-3820b34b6af5}, ! UUID
  {5b17cf86-0500-49c7-a2ac-f34eb17f0746}, ! Version UUID
  1366307130,                             ! Creation Timestamp
  1366307130,                             ! Version Timestamp
  {303c9eb0-59fc-4ba3-80fa-19449161f268}; ! Name of Object 1

