
OS:Version,
  {2f001c27-5f85-4a0a-897d-f8d402d5cd7e}, ! Handle
  0.9.3;                                  ! Version Identifier

OS:SizingPeriod:DesignDay,
  {8adb55bb-ddf9-409a-bc01-e1c2aff6c11f}, ! Handle
  Red Bluff Municipal Arpt Ann Clg 1% Condns DB=>MWB, ! Name
  38.6,                                   ! Maximum Dry-Bulb Temperature {C}
  16.9,                                   ! Daily Dry-Bulb Temperature Range {deltaC}
  20.2,                                   ! Humidity Indicating Conditions at Maximum Dry-Bulb {BasedOnField A3}
  100058,                                 ! Barometric Pressure {Pa}
  3.9,                                    ! Wind Speed {m/s}
  150,                                    ! Wind Direction {deg}
  0,                                      ! Sky Clearness
  0,                                      ! Rain Indicator
  0,                                      ! Snow Indicator
  21,                                     ! Day of Month
  7,                                      ! Month
  SummerDesignDay,                        ! Day Type
  0,                                      ! Daylight Saving Time Indicator
  Wetbulb,                                ! Humidity Indicating Type
  ,                                       ! Humidity Indicating Day Schedule Name
  DefaultMultipliers,                     ! Dry-Bulb Temperature Range Modifier Type
  ,                                       ! Dry-Bulb Temperature Range Modifier Schedule Name
  ASHRAETau,                              ! Solar Model Indicator
  ,                                       ! Beam Solar Day Schedule Name
  ,                                       ! Diffuse Solar Day Schedule Name
  0.364,                                  ! ASHRAE Taub {dimensionless}
  2.504;                                  ! ASHRAE Taud {dimensionless}

OS:ComponentData,
  {e456ae8f-4ebe-4c77-8cf7-fcfb49279414}, ! Handle
  Component Data 1,                       ! Name
  {0029d2b1-a3e3-4ca8-b8b0-ab54401dc777}, ! UUID
  {1a23d3a0-b845-4942-bda6-3fcdb584406b}, ! Version UUID
  1366306546,                             ! Creation Timestamp
  1366306546,                             ! Version Timestamp
  {8adb55bb-ddf9-409a-bc01-e1c2aff6c11f}; ! Name of Object 1

