
OS:Version,
  {8467c8b7-92bb-494e-9d3f-b400467b38b5}, ! Handle
  0.9.3;                                  ! Version Identifier

OS:SizingPeriod:DesignDay,
  {3761ed6a-e761-4e49-8d0b-546180fe0e6b}, ! Handle
  Sheridan Ann Clg .4% Condns DP=>MDB,    ! Name
  23.6,                                   ! Maximum Dry-Bulb Temperature {C}
  17.2,                                   ! Daily Dry-Bulb Temperature Range {deltaC}
  16.3,                                   ! Humidity Indicating Conditions at Maximum Dry-Bulb {BasedOnField A3}
  87619,                                  ! Barometric Pressure {Pa}
  3.7,                                    ! Wind Speed {m/s}
  310,                                    ! Wind Direction {deg}
  0,                                      ! Sky Clearness
  0,                                      ! Rain Indicator
  0,                                      ! Snow Indicator
  21,                                     ! Day of Month
  7,                                      ! Month
  SummerDesignDay,                        ! Day Type
  0,                                      ! Daylight Saving Time Indicator
  Dewpoint,                               ! Humidity Indicating Type
  ,                                       ! Humidity Indicating Day Schedule Name
  DefaultMultipliers,                     ! Dry-Bulb Temperature Range Modifier Type
  ,                                       ! Dry-Bulb Temperature Range Modifier Schedule Name
  ASHRAETau,                              ! Solar Model Indicator
  ,                                       ! Beam Solar Day Schedule Name
  ,                                       ! Diffuse Solar Day Schedule Name
  0.407,                                  ! ASHRAE Taub {dimensionless}
  2.098;                                  ! ASHRAE Taud {dimensionless}

OS:ComponentData,
  {d5d12989-c3d4-4c0f-b6fe-b5b89d848645}, ! Handle
  Component Data 1,                       ! Name
  {7ddfed03-27bb-42fb-bc19-943d6cb6e44c}, ! UUID
  {7bf57a6f-3191-448c-9dce-21cd8e4456d1}, ! Version UUID
  1366311781,                             ! Creation Timestamp
  1366311781,                             ! Version Timestamp
  {3761ed6a-e761-4e49-8d0b-546180fe0e6b}; ! Name of Object 1

