
OS:Version,
  {dc149a63-1f64-4655-a755-f7d8c868e453}, ! Handle
  0.9.3;                                  ! Version Identifier

OS:SizingPeriod:DesignDay,
  {7cf291be-f656-4f55-a9a4-cb82df91e977}, ! Handle
  Mason City Municipal Arpt Ann Clg 2% Condns Enth=>MDB, ! Name
  28.1,                                   ! Maximum Dry-Bulb Temperature {C}
  11.5,                                   ! Daily Dry-Bulb Temperature Range {deltaC}
  71800,                                  ! Humidity Indicating Conditions at Maximum Dry-Bulb {BasedOnField A3}
  97028,                                  ! Barometric Pressure {Pa}
  6.4,                                    ! Wind Speed {m/s}
  200,                                    ! Wind Direction {deg}
  0,                                      ! Sky Clearness
  0,                                      ! Rain Indicator
  0,                                      ! Snow Indicator
  21,                                     ! Day of Month
  7,                                      ! Month
  SummerDesignDay,                        ! Day Type
  0,                                      ! Daylight Saving Time Indicator
  Enthalpy,                               ! Humidity Indicating Type
  ,                                       ! Humidity Indicating Day Schedule Name
  DefaultMultipliers,                     ! Dry-Bulb Temperature Range Modifier Type
  ,                                       ! Dry-Bulb Temperature Range Modifier Schedule Name
  ASHRAETau,                              ! Solar Model Indicator
  ,                                       ! Beam Solar Day Schedule Name
  ,                                       ! Diffuse Solar Day Schedule Name
  0.409,                                  ! ASHRAE Taub {dimensionless}
  2.21;                                   ! ASHRAE Taud {dimensionless}

OS:ComponentData,
  {a556b38c-5dea-4752-9ff6-865168d1af8b}, ! Handle
  Component Data 1,                       ! Name
  {38f8696e-66aa-4032-9d98-8d23f46ff291}, ! UUID
  {3857330e-381e-46f1-99fd-e75f9fecb3ae}, ! Version UUID
  1366307219,                             ! Creation Timestamp
  1366307219,                             ! Version Timestamp
  {7cf291be-f656-4f55-a9a4-cb82df91e977}; ! Name of Object 1

