
OS:Version,
  {baca4464-4d90-409f-9cca-c8c5d1798297}, ! Handle
  0.9.3;                                  ! Version Identifier

OS:SizingPeriod:DesignDay,
  {a5152891-5b44-40af-9f3e-6558835d03ae}, ! Handle
  Whidbey Island Nas Ann Clg .4% Condns WB=>MDB, ! Name
  20.9,                                   ! Maximum Dry-Bulb Temperature {C}
  7.8,                                    ! Daily Dry-Bulb Temperature Range {deltaC}
  17,                                     ! Humidity Indicating Conditions at Maximum Dry-Bulb {BasedOnField A3}
  101205,                                 ! Barometric Pressure {Pa}
  3,                                      ! Wind Speed {m/s}
  260,                                    ! Wind Direction {deg}
  0,                                      ! Sky Clearness
  0,                                      ! Rain Indicator
  0,                                      ! Snow Indicator
  21,                                     ! Day of Month
  8,                                      ! Month
  SummerDesignDay,                        ! Day Type
  0,                                      ! Daylight Saving Time Indicator
  Wetbulb,                                ! Humidity Indicating Type
  ,                                       ! Humidity Indicating Day Schedule Name
  DefaultMultipliers,                     ! Dry-Bulb Temperature Range Modifier Type
  ,                                       ! Dry-Bulb Temperature Range Modifier Schedule Name
  ASHRAETau,                              ! Solar Model Indicator
  ,                                       ! Beam Solar Day Schedule Name
  ,                                       ! Diffuse Solar Day Schedule Name
  0.356,                                  ! ASHRAE Taub {dimensionless}
  2.524;                                  ! ASHRAE Taud {dimensionless}

OS:ComponentData,
  {ea0db4b2-83c8-4700-af7a-118eb52cd5a6}, ! Handle
  Component Data 1,                       ! Name
  {01c374d4-9f31-4779-9cee-5219809469e2}, ! UUID
  {8489d054-9666-44ef-a8a4-f9b919277b9e}, ! Version UUID
  1366311437,                             ! Creation Timestamp
  1366311437,                             ! Version Timestamp
  {a5152891-5b44-40af-9f3e-6558835d03ae}; ! Name of Object 1

