
OS:Version,
  {d0e02435-6bcb-42c1-ab9e-5946a0a1656d}, ! Handle
  0.9.3;                                  ! Version Identifier

OS:SizingPeriod:DesignDay,
  {91cf85f0-e4a7-47af-bc14-a1ff463ac889}, ! Handle
  Olympia Airport Ann Htg Wind 99.6% Condns WS=>MCDB, ! Name
  9.4,                                    ! Maximum Dry-Bulb Temperature {C}
  0,                                      ! Daily Dry-Bulb Temperature Range {deltaC}
  9.4,                                    ! Humidity Indicating Conditions at Maximum Dry-Bulb {BasedOnField A3}
  100570,                                 ! Barometric Pressure {Pa}
  10.8,                                   ! Wind Speed {m/s}
  40,                                     ! Wind Direction {deg}
  0,                                      ! Sky Clearness
  0,                                      ! Rain Indicator
  0,                                      ! Snow Indicator
  21,                                     ! Day of Month
  12,                                     ! Month
  WinterDesignDay,                        ! Day Type
  0,                                      ! Daylight Saving Time Indicator
  Wetbulb,                                ! Humidity Indicating Type
  ,                                       ! Humidity Indicating Day Schedule Name
  DefaultMultipliers,                     ! Dry-Bulb Temperature Range Modifier Type
  ,                                       ! Dry-Bulb Temperature Range Modifier Schedule Name
  ASHRAEClearSky;                         ! Solar Model Indicator

OS:ComponentData,
  {36cfb1dc-358f-42b9-8741-c69de37cbc8c}, ! Handle
  Component Data 1,                       ! Name
  {6145f768-38ca-46b1-b754-59791707c866}, ! UUID
  {e23dc7ac-7959-4542-8a9f-90e171717f8f}, ! Version UUID
  1366311313,                             ! Creation Timestamp
  1366311313,                             ! Version Timestamp
  {91cf85f0-e4a7-47af-bc14-a1ff463ac889}; ! Name of Object 1

