
OS:Version,
  {b004dbe4-aa68-47c9-a190-7a6e4288eda9}, ! Handle
  0.9.3;                                  ! Version Identifier

OS:SizingPeriod:DesignDay,
  {bcbe34ef-a793-41e7-96e4-cc290de0a9cb}, ! Handle
  Washington  Awos Ann Clg 1% Condns DP=>MDB, ! Name
  25.4,                                   ! Maximum Dry-Bulb Temperature {C}
  11.8,                                   ! Daily Dry-Bulb Temperature Range {deltaC}
  20.9,                                   ! Humidity Indicating Conditions at Maximum Dry-Bulb {BasedOnField A3}
  97063,                                  ! Barometric Pressure {Pa}
  3.2,                                    ! Wind Speed {m/s}
  240,                                    ! Wind Direction {deg}
  0,                                      ! Sky Clearness
  0,                                      ! Rain Indicator
  0,                                      ! Snow Indicator
  21,                                     ! Day of Month
  7,                                      ! Month
  SummerDesignDay,                        ! Day Type
  0,                                      ! Daylight Saving Time Indicator
  Dewpoint,                               ! Humidity Indicating Type
  ,                                       ! Humidity Indicating Day Schedule Name
  DefaultMultipliers,                     ! Dry-Bulb Temperature Range Modifier Type
  ,                                       ! Dry-Bulb Temperature Range Modifier Schedule Name
  ASHRAETau,                              ! Solar Model Indicator
  ,                                       ! Beam Solar Day Schedule Name
  ,                                       ! Diffuse Solar Day Schedule Name
  0.486,                                  ! ASHRAE Taub {dimensionless}
  1.92;                                   ! ASHRAE Taud {dimensionless}

OS:ComponentData,
  {e0e0b000-1a11-4b4e-ae38-65151aa15031}, ! Handle
  Component Data 1,                       ! Name
  {85aa0265-de41-46e8-8f5f-0489ae59db69}, ! UUID
  {172262e2-70f6-42aa-ba9f-d463fb6e4c2b}, ! Version UUID
  1366310258,                             ! Creation Timestamp
  1366310258,                             ! Version Timestamp
  {bcbe34ef-a793-41e7-96e4-cc290de0a9cb}; ! Name of Object 1

