
OS:Version,
  {705c3a61-c3cd-40bc-a6b6-7b214fa46099}, ! Handle
  0.9.3;                                  ! Version Identifier

OS:SizingPeriod:DesignDay,
  {53f4a50c-12f8-44d7-9d89-7854e85a00f9}, ! Handle
  Walnut Ridge  Awos Ann Clg 1% Condns Enth=>MDB, ! Name
  31.8,                                   ! Maximum Dry-Bulb Temperature {C}
  9.7,                                    ! Daily Dry-Bulb Temperature Range {deltaC}
  80300,                                  ! Humidity Indicating Conditions at Maximum Dry-Bulb {BasedOnField A3}
  100332,                                 ! Barometric Pressure {Pa}
  4,                                      ! Wind Speed {m/s}
  180,                                    ! Wind Direction {deg}
  0,                                      ! Sky Clearness
  0,                                      ! Rain Indicator
  0,                                      ! Snow Indicator
  21,                                     ! Day of Month
  7,                                      ! Month
  SummerDesignDay,                        ! Day Type
  0,                                      ! Daylight Saving Time Indicator
  Enthalpy,                               ! Humidity Indicating Type
  ,                                       ! Humidity Indicating Day Schedule Name
  DefaultMultipliers,                     ! Dry-Bulb Temperature Range Modifier Type
  ,                                       ! Dry-Bulb Temperature Range Modifier Schedule Name
  ASHRAETau,                              ! Solar Model Indicator
  ,                                       ! Beam Solar Day Schedule Name
  ,                                       ! Diffuse Solar Day Schedule Name
  0.495,                                  ! ASHRAE Taub {dimensionless}
  1.945;                                  ! ASHRAE Taud {dimensionless}

OS:ComponentData,
  {c562b04e-7884-4c5d-b70d-60f3eb3dda51}, ! Handle
  Component Data 1,                       ! Name
  {13fe744a-3087-4f85-aa59-7b47c681abc6}, ! UUID
  {954efa14-f25d-458c-82f9-24c118ef34d1}, ! Version UUID
  1366306259,                             ! Creation Timestamp
  1366306259,                             ! Version Timestamp
  {53f4a50c-12f8-44d7-9d89-7854e85a00f9}; ! Name of Object 1

