
OS:Version,
  {95cce575-a51a-45df-b1af-71dc44feb4e0}, ! Handle
  0.9.3;                                  ! Version Identifier

OS:SizingPeriod:DesignDay,
  {177ce24a-9b2b-452b-9291-4fcb686e347a}, ! Handle
  Walnut Ridge  Awos Ann Clg 1% Condns Enth=>MDB, ! Name
  31.8,                                   ! Maximum Dry-Bulb Temperature {C}
  9.7,                                    ! Daily Dry-Bulb Temperature Range {deltaC}
  80300,                                  ! Humidity Indicating Conditions at Maximum Dry-Bulb {BasedOnField A3}
  100332,                                 ! Barometric Pressure {Pa}
  4,                                      ! Wind Speed {m/s}
  180,                                    ! Wind Direction {deg}
  0,                                      ! Sky Clearness
  0,                                      ! Rain Indicator
  0,                                      ! Snow Indicator
  21,                                     ! Day of Month
  7,                                      ! Month
  SummerDesignDay,                        ! Day Type
  0,                                      ! Daylight Saving Time Indicator
  Enthalpy,                               ! Humidity Indicating Type
  ,                                       ! Humidity Indicating Day Schedule Name
  DefaultMultipliers,                     ! Dry-Bulb Temperature Range Modifier Type
  ,                                       ! Dry-Bulb Temperature Range Modifier Schedule Name
  ASHRAETau,                              ! Solar Model Indicator
  ,                                       ! Beam Solar Day Schedule Name
  ,                                       ! Diffuse Solar Day Schedule Name
  0.495,                                  ! ASHRAE Taub {dimensionless}
  1.945;                                  ! ASHRAE Taud {dimensionless}

