
OS:Version,
  {3239ecbd-9585-4636-b6e2-4ffd8440d6e1}, ! Handle
  0.9.3;                                  ! Version Identifier

OS:SizingPeriod:DesignDay,
  {1de02641-eebc-4350-a1a7-4c97e56f19c5}, ! Handle
  Oscoda Wurtsmith Afb Ann Clg 1% Condns WB=>MDB, ! Name
  28.3,                                   ! Maximum Dry-Bulb Temperature {C}
  11.8,                                   ! Daily Dry-Bulb Temperature Range {deltaC}
  23.2,                                   ! Humidity Indicating Conditions at Maximum Dry-Bulb {BasedOnField A3}
  99087,                                  ! Barometric Pressure {Pa}
  5.4,                                    ! Wind Speed {m/s}
  200,                                    ! Wind Direction {deg}
  0,                                      ! Sky Clearness
  0,                                      ! Rain Indicator
  0,                                      ! Snow Indicator
  21,                                     ! Day of Month
  7,                                      ! Month
  SummerDesignDay,                        ! Day Type
  0,                                      ! Daylight Saving Time Indicator
  Wetbulb,                                ! Humidity Indicating Type
  ,                                       ! Humidity Indicating Day Schedule Name
  DefaultMultipliers,                     ! Dry-Bulb Temperature Range Modifier Type
  ,                                       ! Dry-Bulb Temperature Range Modifier Schedule Name
  ASHRAETau,                              ! Solar Model Indicator
  ,                                       ! Beam Solar Day Schedule Name
  ,                                       ! Diffuse Solar Day Schedule Name
  0.426,                                  ! ASHRAE Taub {dimensionless}
  2.154;                                  ! ASHRAE Taud {dimensionless}

OS:ComponentData,
  {a8c2944c-7da5-4f2a-81de-1d9e7fd3e6e2}, ! Handle
  Component Data 1,                       ! Name
  {3ce43ec8-f5ac-4fe3-9bb9-ec4a6a4c2066}, ! UUID
  {678a4b1e-3738-4ad6-87cb-c4858c8a2150}, ! Version UUID
  1366308084,                             ! Creation Timestamp
  1366308084,                             ! Version Timestamp
  {1de02641-eebc-4350-a1a7-4c97e56f19c5}; ! Name of Object 1

