
OS:Version,
  {d5adefab-e590-49b3-aa38-b0b5c58dc14a}, ! Handle
  0.9.3;                                  ! Version Identifier

OS:SizingPeriod:DesignDay,
  {216296ab-f7a4-469e-99aa-d4133de05bd2}, ! Handle
  Mosinee Central Wi Ann Clg 2% Condns WB=>MDB, ! Name
  26,                                     ! Maximum Dry-Bulb Temperature {C}
  11.6,                                   ! Daily Dry-Bulb Temperature Range {deltaC}
  21.3,                                   ! Humidity Indicating Conditions at Maximum Dry-Bulb {BasedOnField A3}
  96738,                                  ! Barometric Pressure {Pa}
  4.6,                                    ! Wind Speed {m/s}
  220,                                    ! Wind Direction {deg}
  0,                                      ! Sky Clearness
  0,                                      ! Rain Indicator
  0,                                      ! Snow Indicator
  21,                                     ! Day of Month
  7,                                      ! Month
  SummerDesignDay,                        ! Day Type
  0,                                      ! Daylight Saving Time Indicator
  Wetbulb,                                ! Humidity Indicating Type
  ,                                       ! Humidity Indicating Day Schedule Name
  DefaultMultipliers,                     ! Dry-Bulb Temperature Range Modifier Type
  ,                                       ! Dry-Bulb Temperature Range Modifier Schedule Name
  ASHRAETau,                              ! Solar Model Indicator
  ,                                       ! Beam Solar Day Schedule Name
  ,                                       ! Diffuse Solar Day Schedule Name
  0.415,                                  ! ASHRAE Taub {dimensionless}
  2.153;                                  ! ASHRAE Taud {dimensionless}

OS:ComponentData,
  {a783621e-ea25-45ca-b5ba-3e9aab707f7d}, ! Handle
  Component Data 1,                       ! Name
  {b0eb3ac1-4661-4bcb-95b1-4bf419bc98d0}, ! UUID
  {b3707f26-83e4-4ba6-bf34-5ddb5975266b}, ! Version UUID
  1366311570,                             ! Creation Timestamp
  1366311570,                             ! Version Timestamp
  {216296ab-f7a4-469e-99aa-d4133de05bd2}; ! Name of Object 1

