
OS:Version,
  {851d21b1-8c73-4801-a759-55311598d4dd}, ! Handle
  0.9.3;                                  ! Version Identifier

OS:SizingPeriod:DesignDay,
  {84e9eb0e-5598-49b7-abde-8634bd43351d}, ! Handle
  NOME Ann Clg 2% Condns WB=>MDB,         ! Name
  15.7,                                   ! Maximum Dry-Bulb Temperature {C}
  5.9,                                    ! Daily Dry-Bulb Temperature Range {deltaC}
  12.8,                                   ! Humidity Indicating Conditions at Maximum Dry-Bulb {BasedOnField A3}
  101241,                                 ! Barometric Pressure {Pa}
  4.8,                                    ! Wind Speed {m/s}
  260,                                    ! Wind Direction {deg}
  0,                                      ! Sky Clearness
  0,                                      ! Rain Indicator
  0,                                      ! Snow Indicator
  21,                                     ! Day of Month
  7,                                      ! Month
  SummerDesignDay,                        ! Day Type
  0,                                      ! Daylight Saving Time Indicator
  Wetbulb,                                ! Humidity Indicating Type
  ,                                       ! Humidity Indicating Day Schedule Name
  DefaultMultipliers,                     ! Dry-Bulb Temperature Range Modifier Type
  ,                                       ! Dry-Bulb Temperature Range Modifier Schedule Name
  ASHRAETau,                              ! Solar Model Indicator
  ,                                       ! Beam Solar Day Schedule Name
  ,                                       ! Diffuse Solar Day Schedule Name
  0.408,                                  ! ASHRAE Taub {dimensionless}
  2.08;                                   ! ASHRAE Taud {dimensionless}

OS:ComponentData,
  {7bed1ee6-3c2e-4dba-8def-f958ce6c2c17}, ! Handle
  Component Data 1,                       ! Name
  {17685852-0a8b-4258-83ca-33026d81d01c}, ! UUID
  {8644ae0a-324e-4ae5-8042-b06313effd7c}, ! Version UUID
  1366305446,                             ! Creation Timestamp
  1366305446,                             ! Version Timestamp
  {84e9eb0e-5598-49b7-abde-8634bd43351d}; ! Name of Object 1

