
OS:Version,
  {04b3a148-f4b3-4969-955a-60cf791e27f1}, ! Handle
  0.9.3;                                  ! Version Identifier

OS:SizingPeriod:DesignDay,
  {6a0e28d4-62f0-4b7c-b124-0e6acfff89c0}, ! Handle
  Wichita Mid Continent Ap Ann Clg 2% Condns Enth=>MDB, ! Name
  31.3,                                   ! Maximum Dry-Bulb Temperature {C}
  12.1,                                   ! Daily Dry-Bulb Temperature Range {deltaC}
  74100,                                  ! Humidity Indicating Conditions at Maximum Dry-Bulb {BasedOnField A3}
  96588,                                  ! Barometric Pressure {Pa}
  7.1,                                    ! Wind Speed {m/s}
  190,                                    ! Wind Direction {deg}
  0,                                      ! Sky Clearness
  0,                                      ! Rain Indicator
  0,                                      ! Snow Indicator
  21,                                     ! Day of Month
  7,                                      ! Month
  SummerDesignDay,                        ! Day Type
  0,                                      ! Daylight Saving Time Indicator
  Enthalpy,                               ! Humidity Indicating Type
  ,                                       ! Humidity Indicating Day Schedule Name
  DefaultMultipliers,                     ! Dry-Bulb Temperature Range Modifier Type
  ,                                       ! Dry-Bulb Temperature Range Modifier Schedule Name
  ASHRAETau,                              ! Solar Model Indicator
  ,                                       ! Beam Solar Day Schedule Name
  ,                                       ! Diffuse Solar Day Schedule Name
  0.419,                                  ! ASHRAE Taub {dimensionless}
  2.207;                                  ! ASHRAE Taud {dimensionless}

OS:ComponentData,
  {deb77235-bc6c-480d-8772-bdbf39cc149b}, ! Handle
  Component Data 1,                       ! Name
  {f37d3947-a339-47cf-aa21-a2267efa7e26}, ! UUID
  {ce9b0c5f-0026-4ed7-bda6-8b0b929ab61a}, ! Version UUID
  1366307604,                             ! Creation Timestamp
  1366307604,                             ! Version Timestamp
  {6a0e28d4-62f0-4b7c-b124-0e6acfff89c0}; ! Name of Object 1

