
OS:Version,
  {0ba6655e-dbf7-4caa-9ce8-ee7a0858597a}, ! Handle
  0.9.3;                                  ! Version Identifier

OS:SizingPeriod:DesignDay,
  {ccd02687-0ab9-42e3-98ab-eed01368b221}, ! Handle
  Raleigh Durham International Ann Clg 2% Condns WB=>MDB, ! Name
  29.9,                                   ! Maximum Dry-Bulb Temperature {C}
  10.5,                                   ! Daily Dry-Bulb Temperature Range {deltaC}
  24.6,                                   ! Humidity Indicating Conditions at Maximum Dry-Bulb {BasedOnField A3}
  99809,                                  ! Barometric Pressure {Pa}
  4,                                      ! Wind Speed {m/s}
  240,                                    ! Wind Direction {deg}
  0,                                      ! Sky Clearness
  0,                                      ! Rain Indicator
  0,                                      ! Snow Indicator
  21,                                     ! Day of Month
  7,                                      ! Month
  SummerDesignDay,                        ! Day Type
  0,                                      ! Daylight Saving Time Indicator
  Wetbulb,                                ! Humidity Indicating Type
  ,                                       ! Humidity Indicating Day Schedule Name
  DefaultMultipliers,                     ! Dry-Bulb Temperature Range Modifier Type
  ,                                       ! Dry-Bulb Temperature Range Modifier Schedule Name
  ASHRAETau,                              ! Solar Model Indicator
  ,                                       ! Beam Solar Day Schedule Name
  ,                                       ! Diffuse Solar Day Schedule Name
  0.577,                                  ! ASHRAE Taub {dimensionless}
  1.722;                                  ! ASHRAE Taud {dimensionless}

OS:ComponentData,
  {5ae5fbfb-c636-43ce-95a1-832573847b2a}, ! Handle
  Component Data 1,                       ! Name
  {96d3d6e8-0e70-4834-9656-8983fd58de36}, ! UUID
  {bb1e3656-240c-4f46-8e2e-9cb3d9afd121}, ! Version UUID
  1366308974,                             ! Creation Timestamp
  1366308974,                             ! Version Timestamp
  {ccd02687-0ab9-42e3-98ab-eed01368b221}; ! Name of Object 1

