
OS:Version,
  {a225a942-765f-4bf6-bf12-f94efc8aa662}, ! Handle
  0.9.3;                                  ! Version Identifier

OS:SizingPeriod:DesignDay,
  {57ead01f-2111-4c92-97b1-573052e5d1d0}, ! Handle
  Snohomish Co Ann Clg 1% Condns DP=>MDB, ! Name
  19.5,                                   ! Maximum Dry-Bulb Temperature {C}
  9,                                      ! Daily Dry-Bulb Temperature Range {deltaC}
  15.1,                                   ! Humidity Indicating Conditions at Maximum Dry-Bulb {BasedOnField A3}
  99075,                                  ! Barometric Pressure {Pa}
  3.2,                                    ! Wind Speed {m/s}
  350,                                    ! Wind Direction {deg}
  0,                                      ! Sky Clearness
  0,                                      ! Rain Indicator
  0,                                      ! Snow Indicator
  21,                                     ! Day of Month
  8,                                      ! Month
  SummerDesignDay,                        ! Day Type
  0,                                      ! Daylight Saving Time Indicator
  Dewpoint,                               ! Humidity Indicating Type
  ,                                       ! Humidity Indicating Day Schedule Name
  DefaultMultipliers,                     ! Dry-Bulb Temperature Range Modifier Type
  ,                                       ! Dry-Bulb Temperature Range Modifier Schedule Name
  ASHRAETau,                              ! Solar Model Indicator
  ,                                       ! Beam Solar Day Schedule Name
  ,                                       ! Diffuse Solar Day Schedule Name
  0.351,                                  ! ASHRAE Taub {dimensionless}
  2.554;                                  ! ASHRAE Taud {dimensionless}

OS:ComponentData,
  {63c99d50-1e7d-4e4e-bb54-fffbc767a4fb}, ! Handle
  Component Data 1,                       ! Name
  {af9f0f0d-6916-406b-8e35-d4e84d934b75}, ! UUID
  {a3376e4f-2a3a-4152-bf54-413fd6aaf7a2}, ! Version UUID
  1366311371,                             ! Creation Timestamp
  1366311371,                             ! Version Timestamp
  {57ead01f-2111-4c92-97b1-573052e5d1d0}; ! Name of Object 1

