
OS:Version,
  {9c1bc95c-8a92-4795-8853-0da7e5e45e48}, ! Handle
  0.9.3;                                  ! Version Identifier

OS:SizingPeriod:DesignDay,
  {ba34de9f-9146-48a8-8aed-dc0472dd460b}, ! Handle
  South Bend Ann Htg 99% Condns DB,       ! Name
  -15.3,                                  ! Maximum Dry-Bulb Temperature {C}
  0,                                      ! Daily Dry-Bulb Temperature Range {deltaC}
  -15.3,                                  ! Humidity Indicating Conditions at Maximum Dry-Bulb {BasedOnField A3}
  98522,                                  ! Barometric Pressure {Pa}
  5.1,                                    ! Wind Speed {m/s}
  230,                                    ! Wind Direction {deg}
  0,                                      ! Sky Clearness
  0,                                      ! Rain Indicator
  0,                                      ! Snow Indicator
  21,                                     ! Day of Month
  1,                                      ! Month
  WinterDesignDay,                        ! Day Type
  0,                                      ! Daylight Saving Time Indicator
  Wetbulb,                                ! Humidity Indicating Type
  ,                                       ! Humidity Indicating Day Schedule Name
  DefaultMultipliers,                     ! Dry-Bulb Temperature Range Modifier Type
  ,                                       ! Dry-Bulb Temperature Range Modifier Schedule Name
  ASHRAEClearSky;                         ! Solar Model Indicator

OS:ComponentData,
  {f947ea31-4453-4388-8348-0af28fde3269}, ! Handle
  Component Data 1,                       ! Name
  {d54628cb-f6c0-44a8-802c-a0f3f0312f7f}, ! UUID
  {8abd84d9-0a84-4c09-bf50-25dd7aa03344}, ! Version UUID
  1366307478,                             ! Creation Timestamp
  1366307478,                             ! Version Timestamp
  {ba34de9f-9146-48a8-8aed-dc0472dd460b}; ! Name of Object 1

