
OS:Version,
  {6fc2dbb1-6524-4400-90a5-c1a454950339}, ! Handle
  0.9.3;                                  ! Version Identifier

OS:SizingPeriod:DesignDay,
  {d8dc5e7f-a482-4924-9b9e-9170a0e76f8d}, ! Handle
  SANTA_MARIA Ann Clg .4% Condns DB=>MWB, ! Name
  29,                                     ! Maximum Dry-Bulb Temperature {C}
  10.2,                                   ! Daily Dry-Bulb Temperature Range {deltaC}
  17.1,                                   ! Humidity Indicating Conditions at Maximum Dry-Bulb {BasedOnField A3}
  100463,                                 ! Barometric Pressure {Pa}
  4.6,                                    ! Wind Speed {m/s}
  300,                                    ! Wind Direction {deg}
  0,                                      ! Sky Clearness
  0,                                      ! Rain Indicator
  0,                                      ! Snow Indicator
  21,                                     ! Day of Month
  8,                                      ! Month
  SummerDesignDay,                        ! Day Type
  0,                                      ! Daylight Saving Time Indicator
  Wetbulb,                                ! Humidity Indicating Type
  ,                                       ! Humidity Indicating Day Schedule Name
  DefaultMultipliers,                     ! Dry-Bulb Temperature Range Modifier Type
  ,                                       ! Dry-Bulb Temperature Range Modifier Schedule Name
  ASHRAETau,                              ! Solar Model Indicator
  ,                                       ! Beam Solar Day Schedule Name
  ,                                       ! Diffuse Solar Day Schedule Name
  0.371,                                  ! ASHRAE Taub {dimensionless}
  2.414;                                  ! ASHRAE Taud {dimensionless}

OS:ComponentData,
  {841a580a-40c5-4f3c-ab54-302c35a93995}, ! Handle
  Component Data 1,                       ! Name
  {9e39ad93-3b48-466d-80a5-05bb4d03244e}, ! UUID
  {3e595e91-c681-4d8e-9f8e-bb7c99c86070}, ! Version UUID
  1366306609,                             ! Creation Timestamp
  1366306609,                             ! Version Timestamp
  {d8dc5e7f-a482-4924-9b9e-9170a0e76f8d}; ! Name of Object 1

