
OS:Version,
  {82894d1b-8736-4bba-ab85-9dc5bc8ddd94}, ! Handle
  0.9.3;                                  ! Version Identifier

OS:SizingPeriod:DesignDay,
  {bfa539be-3755-43ca-a80c-0d8c9d333c91}, ! Handle
  Savannah Ann Clg .4% Condns DB=>MWB,    ! Name
  35.3,                                   ! Maximum Dry-Bulb Temperature {C}
  10,                                     ! Daily Dry-Bulb Temperature Range {deltaC}
  25.1,                                   ! Humidity Indicating Conditions at Maximum Dry-Bulb {BasedOnField A3}
  101145,                                 ! Barometric Pressure {Pa}
  3.7,                                    ! Wind Speed {m/s}
  290,                                    ! Wind Direction {deg}
  0,                                      ! Sky Clearness
  0,                                      ! Rain Indicator
  0,                                      ! Snow Indicator
  21,                                     ! Day of Month
  7,                                      ! Month
  SummerDesignDay,                        ! Day Type
  0,                                      ! Daylight Saving Time Indicator
  Wetbulb,                                ! Humidity Indicating Type
  ,                                       ! Humidity Indicating Day Schedule Name
  DefaultMultipliers,                     ! Dry-Bulb Temperature Range Modifier Type
  ,                                       ! Dry-Bulb Temperature Range Modifier Schedule Name
  ASHRAETau,                              ! Solar Model Indicator
  ,                                       ! Beam Solar Day Schedule Name
  ,                                       ! Diffuse Solar Day Schedule Name
  0.558,                                  ! ASHRAE Taub {dimensionless}
  1.811;                                  ! ASHRAE Taud {dimensionless}

OS:ComponentData,
  {2f2b0c96-957e-4ba4-9c41-0a757235ecce}, ! Handle
  Component Data 1,                       ! Name
  {7e3d28af-36c4-4a06-8dd5-85730a8c9131}, ! UUID
  {6d1bac3d-b558-47f2-870b-95019d98e88d}, ! Version UUID
  1366307052,                             ! Creation Timestamp
  1366307052,                             ! Version Timestamp
  {bfa539be-3755-43ca-a80c-0d8c9d333c91}; ! Name of Object 1

