
OS:Version,
  {be98b9a1-4fa2-4886-beda-d71385644957}, ! Handle
  0.9.3;                                  ! Version Identifier

OS:SizingPeriod:DesignDay,
  {1df9603c-8bf5-4986-92c0-1bd75a5104d1}, ! Handle
  REDMOND Ann Clg .4% Condns Enth=>MDB,   ! Name
  31.2,                                   ! Maximum Dry-Bulb Temperature {C}
  20,                                     ! Daily Dry-Bulb Temperature Range {deltaC}
  53000,                                  ! Humidity Indicating Conditions at Maximum Dry-Bulb {BasedOnField A3}
  90531,                                  ! Barometric Pressure {Pa}
  4.7,                                    ! Wind Speed {m/s}
  350,                                    ! Wind Direction {deg}
  0,                                      ! Sky Clearness
  0,                                      ! Rain Indicator
  0,                                      ! Snow Indicator
  21,                                     ! Day of Month
  7,                                      ! Month
  SummerDesignDay,                        ! Day Type
  0,                                      ! Daylight Saving Time Indicator
  Enthalpy,                               ! Humidity Indicating Type
  ,                                       ! Humidity Indicating Day Schedule Name
  DefaultMultipliers,                     ! Dry-Bulb Temperature Range Modifier Type
  ,                                       ! Dry-Bulb Temperature Range Modifier Schedule Name
  ASHRAETau,                              ! Solar Model Indicator
  ,                                       ! Beam Solar Day Schedule Name
  ,                                       ! Diffuse Solar Day Schedule Name
  0.355,                                  ! ASHRAE Taub {dimensionless}
  2.422;                                  ! ASHRAE Taud {dimensionless}

