
OS:Version,
  {0b906220-9970-46bf-98f5-6d04e24d71e0}, ! Handle
  0.9.3;                                  ! Version Identifier

OS:SizingPeriod:DesignDay,
  {d8bb7318-a787-4f1b-b949-049866b33f02}, ! Handle
  Mountain View/Moffet N Ann Hum_n 99.6% Condns DP=>MCDB, ! Name
  8.8,                                    ! Maximum Dry-Bulb Temperature {C}
  0,                                      ! Daily Dry-Bulb Temperature Range {deltaC}
  -6.6,                                   ! Humidity Indicating Conditions at Maximum Dry-Bulb {BasedOnField A3}
  101181,                                 ! Barometric Pressure {Pa}
  0.5,                                    ! Wind Speed {m/s}
  270,                                    ! Wind Direction {deg}
  0,                                      ! Sky Clearness
  0,                                      ! Rain Indicator
  0,                                      ! Snow Indicator
  21,                                     ! Day of Month
  12,                                     ! Month
  WinterDesignDay,                        ! Day Type
  0,                                      ! Daylight Saving Time Indicator
  Dewpoint,                               ! Humidity Indicating Type
  ,                                       ! Humidity Indicating Day Schedule Name
  DefaultMultipliers,                     ! Dry-Bulb Temperature Range Modifier Type
  ,                                       ! Dry-Bulb Temperature Range Modifier Schedule Name
  ASHRAEClearSky;                         ! Solar Model Indicator

OS:ComponentData,
  {41ca6f70-340a-4711-a71e-1741e71f120a}, ! Handle
  Component Data 1,                       ! Name
  {7b72feb0-5819-4b8a-9a49-069b13304f55}, ! UUID
  {5439b12b-9da6-4dce-a050-d442db1f3a67}, ! Version UUID
  1366306505,                             ! Creation Timestamp
  1366306505,                             ! Version Timestamp
  {d8bb7318-a787-4f1b-b949-049866b33f02}; ! Name of Object 1

