
OS:Version,
  {55dc1b03-fac1-4feb-afea-3c5debbfc9db}, ! Handle
  0.9.3;                                  ! Version Identifier

OS:SizingPeriod:DesignDay,
  {5763f534-1dc3-4c4b-a2ca-3ef768d70919}, ! Handle
  Ukiah Municipal Ap Ann Htg Wind 99.6% Condns WS=>MCDB, ! Name
  11.1,                                   ! Maximum Dry-Bulb Temperature {C}
  0,                                      ! Daily Dry-Bulb Temperature Range {deltaC}
  11.1,                                   ! Humidity Indicating Conditions at Maximum Dry-Bulb {BasedOnField A3}
  99075,                                  ! Barometric Pressure {Pa}
  8.2,                                    ! Wind Speed {m/s}
  290,                                    ! Wind Direction {deg}
  0,                                      ! Sky Clearness
  0,                                      ! Rain Indicator
  0,                                      ! Snow Indicator
  21,                                     ! Day of Month
  12,                                     ! Month
  WinterDesignDay,                        ! Day Type
  0,                                      ! Daylight Saving Time Indicator
  Wetbulb,                                ! Humidity Indicating Type
  ,                                       ! Humidity Indicating Day Schedule Name
  DefaultMultipliers,                     ! Dry-Bulb Temperature Range Modifier Type
  ,                                       ! Dry-Bulb Temperature Range Modifier Schedule Name
  ASHRAEClearSky;                         ! Solar Model Indicator

OS:ComponentData,
  {017acc29-da56-4896-bdf9-fbaa24ba2c72}, ! Handle
  Component Data 1,                       ! Name
  {6f45d3ba-41b6-4191-8870-f1e90f230d39}, ! UUID
  {381d6d5c-6eda-4fe4-b09a-6708e5928b7a}, ! Version UUID
  1366306628,                             ! Creation Timestamp
  1366306628,                             ! Version Timestamp
  {5763f534-1dc3-4c4b-a2ca-3ef768d70919}; ! Name of Object 1

