
OS:Version,
  {ca2819c3-db77-4b30-a06c-587c6ed182ad}, ! Handle
  0.9.3;                                  ! Version Identifier

OS:SizingPeriod:DesignDay,
  {51ce15d9-64ea-4da1-87f8-7c5190052c2a}, ! Handle
  OMAHA Ann Htg Wind 99% Condns WS=>MCDB, ! Name
  -6.2,                                   ! Maximum Dry-Bulb Temperature {C}
  0,                                      ! Daily Dry-Bulb Temperature Range {deltaC}
  -6.2,                                   ! Humidity Indicating Conditions at Maximum Dry-Bulb {BasedOnField A3}
  96565,                                  ! Barometric Pressure {Pa}
  12,                                     ! Wind Speed {m/s}
  340,                                    ! Wind Direction {deg}
  0,                                      ! Sky Clearness
  0,                                      ! Rain Indicator
  0,                                      ! Snow Indicator
  21,                                     ! Day of Month
  1,                                      ! Month
  WinterDesignDay,                        ! Day Type
  0,                                      ! Daylight Saving Time Indicator
  Wetbulb,                                ! Humidity Indicating Type
  ,                                       ! Humidity Indicating Day Schedule Name
  DefaultMultipliers,                     ! Dry-Bulb Temperature Range Modifier Type
  ,                                       ! Dry-Bulb Temperature Range Modifier Schedule Name
  ASHRAEClearSky;                         ! Solar Model Indicator

OS:ComponentData,
  {3f06a132-9dca-414e-95c5-a0498282e5c3}, ! Handle
  Component Data 1,                       ! Name
  {e4c8e136-de36-40d2-b995-e5a18f4a616c}, ! UUID
  {92c4a7a2-37b0-4b85-a51d-d0b03362bd4e}, ! Version UUID
  1366309176,                             ! Creation Timestamp
  1366309176,                             ! Version Timestamp
  {51ce15d9-64ea-4da1-87f8-7c5190052c2a}; ! Name of Object 1

