
OS:Version,
  {9278de83-4d66-4069-97b0-2e38536fe605}, ! Handle
  0.9.3;                                  ! Version Identifier

OS:SizingPeriod:DesignDay,
  {8263ab2b-65ce-4e0a-aff4-efa1b372c5d8}, ! Handle
  Sault Ste Marie Sanderson Fie Ann Clg .4% Condns DP=>MDB, ! Name
  24.8,                                   ! Maximum Dry-Bulb Temperature {C}
  11.7,                                   ! Daily Dry-Bulb Temperature Range {deltaC}
  21,                                     ! Humidity Indicating Conditions at Maximum Dry-Bulb {BasedOnField A3}
  98722,                                  ! Barometric Pressure {Pa}
  4.2,                                    ! Wind Speed {m/s}
  220,                                    ! Wind Direction {deg}
  0,                                      ! Sky Clearness
  0,                                      ! Rain Indicator
  0,                                      ! Snow Indicator
  21,                                     ! Day of Month
  7,                                      ! Month
  SummerDesignDay,                        ! Day Type
  0,                                      ! Daylight Saving Time Indicator
  Dewpoint,                               ! Humidity Indicating Type
  ,                                       ! Humidity Indicating Day Schedule Name
  DefaultMultipliers,                     ! Dry-Bulb Temperature Range Modifier Type
  ,                                       ! Dry-Bulb Temperature Range Modifier Schedule Name
  ASHRAETau,                              ! Solar Model Indicator
  ,                                       ! Beam Solar Day Schedule Name
  ,                                       ! Diffuse Solar Day Schedule Name
  0.412,                                  ! ASHRAE Taub {dimensionless}
  2.194;                                  ! ASHRAE Taud {dimensionless}

OS:ComponentData,
  {45e127ae-5d03-413f-a304-d0a77a1b2253}, ! Handle
  Component Data 1,                       ! Name
  {957d6ab5-a9d3-4c88-a2ea-9a00f9b20409}, ! UUID
  {8f576f39-6298-4523-aa05-374df7307991}, ! Version UUID
  1366308106,                             ! Creation Timestamp
  1366308106,                             ! Version Timestamp
  {8263ab2b-65ce-4e0a-aff4-efa1b372c5d8}; ! Name of Object 1

