
OS:Version,
  {1fa6fb96-5a71-4c13-bba9-531bcd9d6a5f}, ! Handle
  0.9.3;                                  ! Version Identifier

OS:SizingPeriod:DesignDay,
  {f8690332-1537-4e01-9fa7-354633c91931}, ! Handle
  Ottumwa Industrial Ap Ann Hum_n 99.6% Condns DP=>MCDB, ! Name
  -19.9,                                  ! Maximum Dry-Bulb Temperature {C}
  0,                                      ! Daily Dry-Bulb Temperature Range {deltaC}
  -25.6,                                  ! Humidity Indicating Conditions at Maximum Dry-Bulb {BasedOnField A3}
  98275,                                  ! Barometric Pressure {Pa}
  5.5,                                    ! Wind Speed {m/s}
  310,                                    ! Wind Direction {deg}
  0,                                      ! Sky Clearness
  0,                                      ! Rain Indicator
  0,                                      ! Snow Indicator
  21,                                     ! Day of Month
  1,                                      ! Month
  WinterDesignDay,                        ! Day Type
  0,                                      ! Daylight Saving Time Indicator
  Dewpoint,                               ! Humidity Indicating Type
  ,                                       ! Humidity Indicating Day Schedule Name
  DefaultMultipliers,                     ! Dry-Bulb Temperature Range Modifier Type
  ,                                       ! Dry-Bulb Temperature Range Modifier Schedule Name
  ASHRAEClearSky;                         ! Solar Model Indicator

OS:ComponentData,
  {20e1248d-98e7-4213-8f65-f3e7ef28db16}, ! Handle
  Component Data 1,                       ! Name
  {058083c3-a7c7-4ff8-a131-47f60fc20de1}, ! UUID
  {80076df1-e011-4db0-bc14-e543bc7da1d6}, ! Version UUID
  1366307226,                             ! Creation Timestamp
  1366307226,                             ! Version Timestamp
  {f8690332-1537-4e01-9fa7-354633c91931}; ! Name of Object 1

