
OS:Version,
  {0cb1f1fe-c856-4225-b98f-a5d02213d36a}, ! Handle
  0.9.3;                                  ! Version Identifier

OS:SizingPeriod:DesignDay,
  {624f24c9-392b-4291-bf89-340504cc63af}, ! Handle
  PIERRE Ann Clg 2% Condns WB=>MDB,       ! Name
  30.2,                                   ! Maximum Dry-Bulb Temperature {C}
  14.3,                                   ! Daily Dry-Bulb Temperature Range {deltaC}
  22.1,                                   ! Humidity Indicating Conditions at Maximum Dry-Bulb {BasedOnField A3}
  95164,                                  ! Barometric Pressure {Pa}
  6.2,                                    ! Wind Speed {m/s}
  170,                                    ! Wind Direction {deg}
  0,                                      ! Sky Clearness
  0,                                      ! Rain Indicator
  0,                                      ! Snow Indicator
  21,                                     ! Day of Month
  7,                                      ! Month
  SummerDesignDay,                        ! Day Type
  0,                                      ! Daylight Saving Time Indicator
  Wetbulb,                                ! Humidity Indicating Type
  ,                                       ! Humidity Indicating Day Schedule Name
  DefaultMultipliers,                     ! Dry-Bulb Temperature Range Modifier Type
  ,                                       ! Dry-Bulb Temperature Range Modifier Schedule Name
  ASHRAETau,                              ! Solar Model Indicator
  ,                                       ! Beam Solar Day Schedule Name
  ,                                       ! Diffuse Solar Day Schedule Name
  0.427,                                  ! ASHRAE Taub {dimensionless}
  2.103;                                  ! ASHRAE Taud {dimensionless}

OS:ComponentData,
  {039c71be-ab98-4df6-914d-4be0ab866200}, ! Handle
  Component Data 1,                       ! Name
  {d870ab3f-b81f-4bab-ad49-3cd5862e9efa}, ! UUID
  {ce8ec356-27e7-4b1e-93fe-48ce23eb0ca5}, ! Version UUID
  1366310427,                             ! Creation Timestamp
  1366310427,                             ! Version Timestamp
  {624f24c9-392b-4291-bf89-340504cc63af}; ! Name of Object 1

