
OS:Version,
  {34ea8561-febf-493f-97fe-740631918a86}, ! Handle
  0.9.3;                                  ! Version Identifier

OS:SizingPeriod:DesignDay,
  {057e9b84-5368-41d8-b742-113a3a1754a1}, ! Handle
  Springfield Hartnes Ann Clg .4% Condns DB=>MWB, ! Name
  31.2,                                   ! Maximum Dry-Bulb Temperature {C}
  12.4,                                   ! Daily Dry-Bulb Temperature Range {deltaC}
  21.8,                                   ! Humidity Indicating Conditions at Maximum Dry-Bulb {BasedOnField A3}
  99228,                                  ! Barometric Pressure {Pa}
  3.9,                                    ! Wind Speed {m/s}
  240,                                    ! Wind Direction {deg}
  0,                                      ! Sky Clearness
  0,                                      ! Rain Indicator
  0,                                      ! Snow Indicator
  21,                                     ! Day of Month
  7,                                      ! Month
  SummerDesignDay,                        ! Day Type
  0,                                      ! Daylight Saving Time Indicator
  Wetbulb,                                ! Humidity Indicating Type
  ,                                       ! Humidity Indicating Day Schedule Name
  DefaultMultipliers,                     ! Dry-Bulb Temperature Range Modifier Type
  ,                                       ! Dry-Bulb Temperature Range Modifier Schedule Name
  ASHRAETau,                              ! Solar Model Indicator
  ,                                       ! Beam Solar Day Schedule Name
  ,                                       ! Diffuse Solar Day Schedule Name
  0.443,                                  ! ASHRAE Taub {dimensionless}
  2.072;                                  ! ASHRAE Taud {dimensionless}

OS:ComponentData,
  {3cf3a122-a49d-41ac-a72d-027582c3cff7}, ! Handle
  Component Data 1,                       ! Name
  {087d88f0-dd92-471f-b8df-65d11d8d68fb}, ! UUID
  {cd4a7809-a44d-44c8-b189-14f4f9a3dac9}, ! Version UUID
  1366311261,                             ! Creation Timestamp
  1366311261,                             ! Version Timestamp
  {057e9b84-5368-41d8-b742-113a3a1754a1}; ! Name of Object 1

