
OS:Version,
  {8c3afa93-927b-45ff-87c8-abd2359443e7}, ! Handle
  0.9.3;                                  ! Version Identifier

OS:SizingPeriod:DesignDay,
  {46e9065b-3bfc-46ae-ba5c-4fb999ecffbd}, ! Handle
  Rochester Ann Clg 1% Condns Enth=>MDB,  ! Name
  27.8,                                   ! Maximum Dry-Bulb Temperature {C}
  10.7,                                   ! Daily Dry-Bulb Temperature Range {deltaC}
  69200,                                  ! Humidity Indicating Conditions at Maximum Dry-Bulb {BasedOnField A3}
  99311,                                  ! Barometric Pressure {Pa}
  5.2,                                    ! Wind Speed {m/s}
  240,                                    ! Wind Direction {deg}
  0,                                      ! Sky Clearness
  0,                                      ! Rain Indicator
  0,                                      ! Snow Indicator
  21,                                     ! Day of Month
  7,                                      ! Month
  SummerDesignDay,                        ! Day Type
  0,                                      ! Daylight Saving Time Indicator
  Enthalpy,                               ! Humidity Indicating Type
  ,                                       ! Humidity Indicating Day Schedule Name
  DefaultMultipliers,                     ! Dry-Bulb Temperature Range Modifier Type
  ,                                       ! Dry-Bulb Temperature Range Modifier Schedule Name
  ASHRAETau,                              ! Solar Model Indicator
  ,                                       ! Beam Solar Day Schedule Name
  ,                                       ! Diffuse Solar Day Schedule Name
  0.463,                                  ! ASHRAE Taub {dimensionless}
  2.001;                                  ! ASHRAE Taud {dimensionless}

OS:ComponentData,
  {91fc01c1-23d0-4100-afa9-4d0e3802f150}, ! Handle
  Component Data 1,                       ! Name
  {f47e3cf4-d8e4-481f-9d44-65838352f244}, ! UUID
  {fcad96e7-1349-4dd3-bfa0-fee93f7c68b9}, ! Version UUID
  1366309715,                             ! Creation Timestamp
  1366309715,                             ! Version Timestamp
  {46e9065b-3bfc-46ae-ba5c-4fb999ecffbd}; ! Name of Object 1

