
OS:Version,
  {ea35afc4-4a02-4ad9-83e0-37625666540f}, ! Handle
  0.9.3;                                  ! Version Identifier

OS:SizingPeriod:DesignDay,
  {e1b512fe-9c07-46d7-9a02-95947a892942}, ! Handle
  SAN_DIEGO Ann Clg .4% Condns DB=>MWB,   ! Name
  28.9,                                   ! Maximum Dry-Bulb Temperature {C}
  4.9,                                    ! Daily Dry-Bulb Temperature Range {deltaC}
  19.9,                                   ! Humidity Indicating Conditions at Maximum Dry-Bulb {BasedOnField A3}
  101217,                                 ! Barometric Pressure {Pa}
  4.6,                                    ! Wind Speed {m/s}
  300,                                    ! Wind Direction {deg}
  0,                                      ! Sky Clearness
  0,                                      ! Rain Indicator
  0,                                      ! Snow Indicator
  21,                                     ! Day of Month
  8,                                      ! Month
  SummerDesignDay,                        ! Day Type
  0,                                      ! Daylight Saving Time Indicator
  Wetbulb,                                ! Humidity Indicating Type
  ,                                       ! Humidity Indicating Day Schedule Name
  DefaultMultipliers,                     ! Dry-Bulb Temperature Range Modifier Type
  ,                                       ! Dry-Bulb Temperature Range Modifier Schedule Name
  ASHRAETau,                              ! Solar Model Indicator
  ,                                       ! Beam Solar Day Schedule Name
  ,                                       ! Diffuse Solar Day Schedule Name
  0.426,                                  ! ASHRAE Taub {dimensionless}
  2.214;                                  ! ASHRAE Taud {dimensionless}

OS:ComponentData,
  {e8e507a1-81e6-4023-ba94-219eda356b55}, ! Handle
  Component Data 1,                       ! Name
  {a5b6fd8e-76d7-45b7-97a4-13b499c6fcbe}, ! UUID
  {4745b6d6-1d9a-4bec-bd7b-58ff0f70da06}, ! Version UUID
  1366306586,                             ! Creation Timestamp
  1366306586,                             ! Version Timestamp
  {e1b512fe-9c07-46d7-9a02-95947a892942}; ! Name of Object 1

