
OS:Version,
  {b4d92fad-622d-476e-a995-e26f720646ec}, ! Handle
  0.9.3;                                  ! Version Identifier

OS:SizingPeriod:DesignDay,
  {df9d89c4-5f60-4037-a33e-b29d682d6557}, ! Handle
  WATERLOO Ann Hum_n 99% Condns DP=>MCDB, ! Name
  -20.9,                                  ! Maximum Dry-Bulb Temperature {C}
  0,                                      ! Daily Dry-Bulb Temperature Range {deltaC}
  -25.4,                                  ! Humidity Indicating Conditions at Maximum Dry-Bulb {BasedOnField A3}
  98182,                                  ! Barometric Pressure {Pa}
  3.9,                                    ! Wind Speed {m/s}
  310,                                    ! Wind Direction {deg}
  0,                                      ! Sky Clearness
  0,                                      ! Rain Indicator
  0,                                      ! Snow Indicator
  21,                                     ! Day of Month
  1,                                      ! Month
  WinterDesignDay,                        ! Day Type
  0,                                      ! Daylight Saving Time Indicator
  Dewpoint,                               ! Humidity Indicating Type
  ,                                       ! Humidity Indicating Day Schedule Name
  DefaultMultipliers,                     ! Dry-Bulb Temperature Range Modifier Type
  ,                                       ! Dry-Bulb Temperature Range Modifier Schedule Name
  ASHRAEClearSky;                         ! Solar Model Indicator

OS:ComponentData,
  {bed21157-430c-47a9-a42b-6c6ed854fa03}, ! Handle
  Component Data 1,                       ! Name
  {653c7a3c-3658-48d6-ada8-00cd5d5593f6}, ! UUID
  {63b07fb9-2627-421f-bfbf-748b886eb5fd}, ! Version UUID
  1366307251,                             ! Creation Timestamp
  1366307251,                             ! Version Timestamp
  {df9d89c4-5f60-4037-a33e-b29d682d6557}; ! Name of Object 1

