
OS:Version,
  {2454091d-e82e-415a-9ccd-89dbe276e4e0}, ! Handle
  0.9.3;                                  ! Version Identifier

OS:SizingPeriod:DesignDay,
  {be3ce2b8-1760-4794-bf63-be0745da578a}, ! Handle
  Sidney Municipal Ap Ann Clg 1% Condns Enth=>MDB, ! Name
  28.6,                                   ! Maximum Dry-Bulb Temperature {C}
  15.8,                                   ! Daily Dry-Bulb Temperature Range {deltaC}
  60100,                                  ! Humidity Indicating Conditions at Maximum Dry-Bulb {BasedOnField A3}
  86514,                                  ! Barometric Pressure {Pa}
  5.4,                                    ! Wind Speed {m/s}
  170,                                    ! Wind Direction {deg}
  0,                                      ! Sky Clearness
  0,                                      ! Rain Indicator
  0,                                      ! Snow Indicator
  21,                                     ! Day of Month
  7,                                      ! Month
  SummerDesignDay,                        ! Day Type
  0,                                      ! Daylight Saving Time Indicator
  Enthalpy,                               ! Humidity Indicating Type
  ,                                       ! Humidity Indicating Day Schedule Name
  DefaultMultipliers,                     ! Dry-Bulb Temperature Range Modifier Type
  ,                                       ! Dry-Bulb Temperature Range Modifier Schedule Name
  ASHRAETau,                              ! Solar Model Indicator
  ,                                       ! Beam Solar Day Schedule Name
  ,                                       ! Diffuse Solar Day Schedule Name
  0.417,                                  ! ASHRAE Taub {dimensionless}
  2.037;                                  ! ASHRAE Taud {dimensionless}

OS:ComponentData,
  {818d90c1-d3b1-4de2-be9a-f60a01eb95fc}, ! Handle
  Component Data 1,                       ! Name
  {eb388cf9-4a65-4643-b6e5-5082aacaeb46}, ! UUID
  {ae4ca997-cd0b-4737-bfb8-c353c340c2f3}, ! Version UUID
  1366309204,                             ! Creation Timestamp
  1366309204,                             ! Version Timestamp
  {be3ce2b8-1760-4794-bf63-be0745da578a}; ! Name of Object 1

