
OS:Version,
  {1cf2c0d4-83c7-4cc0-909a-9c12e089e771}, ! Handle
  0.9.3;                                  ! Version Identifier

OS:SizingPeriod:DesignDay,
  {0feedc5a-0987-47fb-8a90-a19d1b04b426}, ! Handle
  Sherman-Denison Ann Hum_n 99.6% Condns DP=>MCDB, ! Name
  -1.1,                                   ! Maximum Dry-Bulb Temperature {C}
  0,                                      ! Daily Dry-Bulb Temperature Range {deltaC}
  -12.3,                                  ! Humidity Indicating Conditions at Maximum Dry-Bulb {BasedOnField A3}
  98557,                                  ! Barometric Pressure {Pa}
  3.4,                                    ! Wind Speed {m/s}
  0,                                      ! Wind Direction {deg}
  0,                                      ! Sky Clearness
  0,                                      ! Rain Indicator
  0,                                      ! Snow Indicator
  21,                                     ! Day of Month
  12,                                     ! Month
  WinterDesignDay,                        ! Day Type
  0,                                      ! Daylight Saving Time Indicator
  Dewpoint,                               ! Humidity Indicating Type
  ,                                       ! Humidity Indicating Day Schedule Name
  DefaultMultipliers,                     ! Dry-Bulb Temperature Range Modifier Type
  ,                                       ! Dry-Bulb Temperature Range Modifier Schedule Name
  ASHRAEClearSky;                         ! Solar Model Indicator

OS:ComponentData,
  {8760347e-6ff8-4833-98be-d6a8ffae1efa}, ! Handle
  Component Data 1,                       ! Name
  {9ddeabec-88ff-473b-b675-a58223d7f265}, ! UUID
  {1425e082-8290-4b26-8b45-8ebcd16dc5e7}, ! Version UUID
  1366310902,                             ! Creation Timestamp
  1366310902,                             ! Version Timestamp
  {0feedc5a-0987-47fb-8a90-a19d1b04b426}; ! Name of Object 1

