
OS:Version,
  {72f27f79-eebe-403d-9f75-d726f30241f5}, ! Handle
  0.9.3;                                  ! Version Identifier

OS:SizingPeriod:DesignDay,
  {038b628f-f7fd-4620-b8ea-ca6f87c8574f}, ! Handle
  Ponca City Municipal Ap  Sgp Ann Clg .4% Condns DP=>MDB, ! Name
  30,                                     ! Maximum Dry-Bulb Temperature {C}
  11.4,                                   ! Daily Dry-Bulb Temperature Range {deltaC}
  24.1,                                   ! Humidity Indicating Conditions at Maximum Dry-Bulb {BasedOnField A3}
  97563,                                  ! Barometric Pressure {Pa}
  5.2,                                    ! Wind Speed {m/s}
  170,                                    ! Wind Direction {deg}
  0,                                      ! Sky Clearness
  0,                                      ! Rain Indicator
  0,                                      ! Snow Indicator
  21,                                     ! Day of Month
  7,                                      ! Month
  SummerDesignDay,                        ! Day Type
  0,                                      ! Daylight Saving Time Indicator
  Dewpoint,                               ! Humidity Indicating Type
  ,                                       ! Humidity Indicating Day Schedule Name
  DefaultMultipliers,                     ! Dry-Bulb Temperature Range Modifier Type
  ,                                       ! Dry-Bulb Temperature Range Modifier Schedule Name
  ASHRAETau,                              ! Solar Model Indicator
  ,                                       ! Beam Solar Day Schedule Name
  ,                                       ! Diffuse Solar Day Schedule Name
  0.432,                                  ! ASHRAE Taub {dimensionless}
  2.176;                                  ! ASHRAE Taud {dimensionless}

OS:ComponentData,
  {6f2de5d2-8b90-4c33-94df-9a03759b1af6}, ! Handle
  Component Data 1,                       ! Name
  {320ad112-7adf-482f-a793-52c2a65b0bbc}, ! UUID
  {ec758341-da79-4684-b14e-74021b9e60d2}, ! Version UUID
  1366309941,                             ! Creation Timestamp
  1366309941,                             ! Version Timestamp
  {038b628f-f7fd-4620-b8ea-ca6f87c8574f}; ! Name of Object 1

