
OS:Version,
  {4e3db97b-3b25-4962-8697-b7269c36ea57}, ! Handle
  0.9.3;                                  ! Version Identifier

OS:SizingPeriod:DesignDay,
  {4bb06a80-9705-4f82-8d62-038f4fdf0d40}, ! Handle
  Modesto City County Ap Ann Htg 99.6% Condns DB, ! Name
  -0.5,                                   ! Maximum Dry-Bulb Temperature {C}
  0,                                      ! Daily Dry-Bulb Temperature Range {deltaC}
  -0.5,                                   ! Humidity Indicating Conditions at Maximum Dry-Bulb {BasedOnField A3}
  100965,                                 ! Barometric Pressure {Pa}
  1.2,                                    ! Wind Speed {m/s}
  120,                                    ! Wind Direction {deg}
  0,                                      ! Sky Clearness
  0,                                      ! Rain Indicator
  0,                                      ! Snow Indicator
  21,                                     ! Day of Month
  1,                                      ! Month
  WinterDesignDay,                        ! Day Type
  0,                                      ! Daylight Saving Time Indicator
  Wetbulb,                                ! Humidity Indicating Type
  ,                                       ! Humidity Indicating Day Schedule Name
  DefaultMultipliers,                     ! Dry-Bulb Temperature Range Modifier Type
  ,                                       ! Dry-Bulb Temperature Range Modifier Schedule Name
  ASHRAEClearSky;                         ! Solar Model Indicator

OS:ComponentData,
  {955250a1-39ae-45c4-8aeb-ad799f1a3ba6}, ! Handle
  Component Data 1,                       ! Name
  {5580b70e-5280-47eb-9082-ee14e81a1f8e}, ! UUID
  {9dffb17d-dcac-4410-99f8-d13ff7f1fa48}, ! Version UUID
  1366306489,                             ! Creation Timestamp
  1366306489,                             ! Version Timestamp
  {4bb06a80-9705-4f82-8d62-038f4fdf0d40}; ! Name of Object 1

