
OS:Version,
  {7303270d-e48b-4747-ab49-7a15dc15dd88}, ! Handle
  0.9.3;                                  ! Version Identifier

OS:SizingPeriod:DesignDay,
  {862fb5d3-71ee-4653-a530-e173adece51d}, ! Handle
  PROVIDENCE Ann Clg 1% Condns DB=>MWB,   ! Name
  30.4,                                   ! Maximum Dry-Bulb Temperature {C}
  9.6,                                    ! Daily Dry-Bulb Temperature Range {deltaC}
  22.1,                                   ! Humidity Indicating Conditions at Maximum Dry-Bulb {BasedOnField A3}
  101097,                                 ! Barometric Pressure {Pa}
  5.5,                                    ! Wind Speed {m/s}
  280,                                    ! Wind Direction {deg}
  0,                                      ! Sky Clearness
  0,                                      ! Rain Indicator
  0,                                      ! Snow Indicator
  21,                                     ! Day of Month
  7,                                      ! Month
  SummerDesignDay,                        ! Day Type
  0,                                      ! Daylight Saving Time Indicator
  Wetbulb,                                ! Humidity Indicating Type
  ,                                       ! Humidity Indicating Day Schedule Name
  DefaultMultipliers,                     ! Dry-Bulb Temperature Range Modifier Type
  ,                                       ! Dry-Bulb Temperature Range Modifier Schedule Name
  ASHRAETau,                              ! Solar Model Indicator
  ,                                       ! Beam Solar Day Schedule Name
  ,                                       ! Diffuse Solar Day Schedule Name
  0.507,                                  ! ASHRAE Taub {dimensionless}
  1.885;                                  ! ASHRAE Taud {dimensionless}

OS:ComponentData,
  {3ac5707d-b71d-4da6-a9cd-0436b9efdbe6}, ! Handle
  Component Data 1,                       ! Name
  {51f03cd8-76b8-4674-8bb9-97fe91e986e2}, ! UUID
  {0765f1f9-5707-48a5-9c5b-50f034738c35}, ! Version UUID
  1366310308,                             ! Creation Timestamp
  1366310308,                             ! Version Timestamp
  {862fb5d3-71ee-4653-a530-e173adece51d}; ! Name of Object 1

