
OS:Version,
  {7dd8c924-552c-4de7-8cdd-21d7521c184b}, ! Handle
  0.9.3;                                  ! Version Identifier

OS:SizingPeriod:DesignDay,
  {8b016edd-5288-4b26-a6e6-4a791951c440}, ! Handle
  NORFOLK Ann Clg 2% Condns DP=>MDB,      ! Name
  27.2,                                   ! Maximum Dry-Bulb Temperature {C}
  8.1,                                    ! Daily Dry-Bulb Temperature Range {deltaC}
  23.7,                                   ! Humidity Indicating Conditions at Maximum Dry-Bulb {BasedOnField A3}
  101217,                                 ! Barometric Pressure {Pa}
  5,                                      ! Wind Speed {m/s}
  240,                                    ! Wind Direction {deg}
  0,                                      ! Sky Clearness
  0,                                      ! Rain Indicator
  0,                                      ! Snow Indicator
  21,                                     ! Day of Month
  7,                                      ! Month
  SummerDesignDay,                        ! Day Type
  0,                                      ! Daylight Saving Time Indicator
  Dewpoint,                               ! Humidity Indicating Type
  ,                                       ! Humidity Indicating Day Schedule Name
  DefaultMultipliers,                     ! Dry-Bulb Temperature Range Modifier Type
  ,                                       ! Dry-Bulb Temperature Range Modifier Schedule Name
  ASHRAETau,                              ! Solar Model Indicator
  ,                                       ! Beam Solar Day Schedule Name
  ,                                       ! Diffuse Solar Day Schedule Name
  0.59,                                   ! ASHRAE Taub {dimensionless}
  1.703;                                  ! ASHRAE Taud {dimensionless}

