
OS:Version,
  {d39ee809-8874-455c-a905-5013eb61a945}, ! Handle
  0.9.3;                                  ! Version Identifier

OS:SizingPeriod:DesignDay,
  {e2d51523-3965-4f70-b1bb-1ce5483cb6a2}, ! Handle
  PHILADELPHIA Ann Htg Wind 99.6% Condns WS=>MCDB, ! Name
  0.3,                                    ! Maximum Dry-Bulb Temperature {C}
  0,                                      ! Daily Dry-Bulb Temperature Range {deltaC}
  0.3,                                    ! Humidity Indicating Conditions at Maximum Dry-Bulb {BasedOnField A3}
  101217,                                 ! Barometric Pressure {Pa}
  9.3,                                    ! Wind Speed {m/s}
  300,                                    ! Wind Direction {deg}
  0,                                      ! Sky Clearness
  0,                                      ! Rain Indicator
  0,                                      ! Snow Indicator
  21,                                     ! Day of Month
  1,                                      ! Month
  WinterDesignDay,                        ! Day Type
  0,                                      ! Daylight Saving Time Indicator
  Wetbulb,                                ! Humidity Indicating Type
  ,                                       ! Humidity Indicating Day Schedule Name
  DefaultMultipliers,                     ! Dry-Bulb Temperature Range Modifier Type
  ,                                       ! Dry-Bulb Temperature Range Modifier Schedule Name
  ASHRAEClearSky;                         ! Solar Model Indicator

OS:ComponentData,
  {c24a3270-9bd6-4810-9b8f-a9c7bb1292c9}, ! Handle
  Component Data 1,                       ! Name
  {9b84407f-93d9-4ffc-9361-218342210983}, ! UUID
  {c5ff8264-7a24-4f52-8e48-258f6b2fd021}, ! Version UUID
  1366310213,                             ! Creation Timestamp
  1366310213,                             ! Version Timestamp
  {e2d51523-3965-4f70-b1bb-1ce5483cb6a2}; ! Name of Object 1

