
OS:Version,
  {75cc25b3-58d4-449b-a237-bcb77537e75f}, ! Handle
  0.9.3;                                  ! Version Identifier

OS:SizingPeriod:DesignDay,
  {39bf2466-4cb3-4119-a04e-530a5b5029a5}, ! Handle
  North Bend Ann Clg .4% Condns Enth=>MDB, ! Name
  20.2,                                   ! Maximum Dry-Bulb Temperature {C}
  7.3,                                    ! Daily Dry-Bulb Temperature Range {deltaC}
  46800,                                  ! Humidity Indicating Conditions at Maximum Dry-Bulb {BasedOnField A3}
  101277,                                 ! Barometric Pressure {Pa}
  6.1,                                    ! Wind Speed {m/s}
  330,                                    ! Wind Direction {deg}
  0,                                      ! Sky Clearness
  0,                                      ! Rain Indicator
  0,                                      ! Snow Indicator
  21,                                     ! Day of Month
  8,                                      ! Month
  SummerDesignDay,                        ! Day Type
  0,                                      ! Daylight Saving Time Indicator
  Enthalpy,                               ! Humidity Indicating Type
  ,                                       ! Humidity Indicating Day Schedule Name
  DefaultMultipliers,                     ! Dry-Bulb Temperature Range Modifier Type
  ,                                       ! Dry-Bulb Temperature Range Modifier Schedule Name
  ASHRAETau,                              ! Solar Model Indicator
  ,                                       ! Beam Solar Day Schedule Name
  ,                                       ! Diffuse Solar Day Schedule Name
  0.348,                                  ! ASHRAE Taub {dimensionless}
  2.638;                                  ! ASHRAE Taud {dimensionless}

OS:ComponentData,
  {4bed7457-4aa8-42d2-8362-0f32df61effb}, ! Handle
  Component Data 1,                       ! Name
  {f53d2bc4-8b81-4f03-bcec-6f101b84fe5f}, ! UUID
  {69333b88-71a6-4295-91cd-ce95edb4ce85}, ! Version UUID
  1366310051,                             ! Creation Timestamp
  1366310051,                             ! Version Timestamp
  {39bf2466-4cb3-4119-a04e-530a5b5029a5}; ! Name of Object 1

