
OS:Version,
  {70eebd62-0751-40a0-87cc-edda71cc4fc2}, ! Handle
  0.9.3;                                  ! Version Identifier

OS:SizingPeriod:DesignDay,
  {2b3e9216-1f8f-4b02-af2e-9941fa9cd58e}, ! Handle
  New River Mcaf Ann Clg 1% Condns WB=>MDB, ! Name
  31,                                     ! Maximum Dry-Bulb Temperature {C}
  9.1,                                    ! Daily Dry-Bulb Temperature Range {deltaC}
  26.3,                                   ! Humidity Indicating Conditions at Maximum Dry-Bulb {BasedOnField A3}
  101265,                                 ! Barometric Pressure {Pa}
  3.4,                                    ! Wind Speed {m/s}
  240,                                    ! Wind Direction {deg}
  0,                                      ! Sky Clearness
  0,                                      ! Rain Indicator
  0,                                      ! Snow Indicator
  21,                                     ! Day of Month
  7,                                      ! Month
  SummerDesignDay,                        ! Day Type
  0,                                      ! Daylight Saving Time Indicator
  Wetbulb,                                ! Humidity Indicating Type
  ,                                       ! Humidity Indicating Day Schedule Name
  DefaultMultipliers,                     ! Dry-Bulb Temperature Range Modifier Type
  ,                                       ! Dry-Bulb Temperature Range Modifier Schedule Name
  ASHRAETau,                              ! Solar Model Indicator
  ,                                       ! Beam Solar Day Schedule Name
  ,                                       ! Diffuse Solar Day Schedule Name
  0.594,                                  ! ASHRAE Taub {dimensionless}
  1.709;                                  ! ASHRAE Taud {dimensionless}

OS:ComponentData,
  {cb7ebfe7-f739-464c-bcbc-49417ccdc7ed}, ! Handle
  Component Data 1,                       ! Name
  {f15472d3-300b-453e-b247-4ca2963e66b9}, ! UUID
  {861e73c2-0878-4d2c-b42e-2db73a2cc56f}, ! Version UUID
  1366308957,                             ! Creation Timestamp
  1366308957,                             ! Version Timestamp
  {2b3e9216-1f8f-4b02-af2e-9941fa9cd58e}; ! Name of Object 1

