
OS:Version,
  {a6760e47-5b86-47ef-9624-34ab36ed22a3}, ! Handle
  0.9.3;                                  ! Version Identifier

OS:SizingPeriod:DesignDay,
  {6c589317-5093-40ad-8c0f-718a14e16ac6}, ! Handle
  Sault Ste Marie Ann Htg 99% Condns DB,  ! Name
  -21.2,                                  ! Maximum Dry-Bulb Temperature {C}
  0,                                      ! Daily Dry-Bulb Temperature Range {deltaC}
  -21.2,                                  ! Humidity Indicating Conditions at Maximum Dry-Bulb {BasedOnField A3}
  98698,                                  ! Barometric Pressure {Pa}
  2.4,                                    ! Wind Speed {m/s}
  90,                                     ! Wind Direction {deg}
  0,                                      ! Sky Clearness
  0,                                      ! Rain Indicator
  0,                                      ! Snow Indicator
  21,                                     ! Day of Month
  1,                                      ! Month
  WinterDesignDay,                        ! Day Type
  0,                                      ! Daylight Saving Time Indicator
  Wetbulb,                                ! Humidity Indicating Type
  ,                                       ! Humidity Indicating Day Schedule Name
  DefaultMultipliers,                     ! Dry-Bulb Temperature Range Modifier Type
  ,                                       ! Dry-Bulb Temperature Range Modifier Schedule Name
  ASHRAEClearSky;                         ! Solar Model Indicator

OS:ComponentData,
  {b59c4cb2-3329-4ad7-ba4d-b351320b1564}, ! Handle
  Component Data 1,                       ! Name
  {1e303163-5629-4275-b905-44c48a562e29}, ! UUID
  {e011141e-c74d-4597-a709-22627e7adb42}, ! Version UUID
  1366308100,                             ! Creation Timestamp
  1366308100,                             ! Version Timestamp
  {6c589317-5093-40ad-8c0f-718a14e16ac6}; ! Name of Object 1

