
OS:Version,
  {d83c8784-4f55-4c6c-a9f7-937c9beb06de}, ! Handle
  0.9.3;                                  ! Version Identifier

OS:SizingPeriod:DesignDay,
  {2b313557-877d-484b-aa29-ab697cd39272}, ! Handle
  Philadelphia Ne Philadelphia Ann Htg Wind 99.6% Condns WS=>MCDB, ! Name
  0.2,                                    ! Maximum Dry-Bulb Temperature {C}
  0,                                      ! Daily Dry-Bulb Temperature Range {deltaC}
  0.2,                                    ! Humidity Indicating Conditions at Maximum Dry-Bulb {BasedOnField A3}
  100965,                                 ! Barometric Pressure {Pa}
  11.1,                                   ! Wind Speed {m/s}
  300,                                    ! Wind Direction {deg}
  0,                                      ! Sky Clearness
  0,                                      ! Rain Indicator
  0,                                      ! Snow Indicator
  21,                                     ! Day of Month
  1,                                      ! Month
  WinterDesignDay,                        ! Day Type
  0,                                      ! Daylight Saving Time Indicator
  Wetbulb,                                ! Humidity Indicating Type
  ,                                       ! Humidity Indicating Day Schedule Name
  DefaultMultipliers,                     ! Dry-Bulb Temperature Range Modifier Type
  ,                                       ! Dry-Bulb Temperature Range Modifier Schedule Name
  ASHRAEClearSky;                         ! Solar Model Indicator

OS:ComponentData,
  {be0f4cb1-1d96-42a4-8f73-935f7df52409}, ! Handle
  Component Data 1,                       ! Name
  {07a57537-9c33-4a42-941c-9b4d3b48c71f}, ! UUID
  {52d6268b-cc30-439e-a98b-2fe99dc3a5a1}, ! Version UUID
  1366310206,                             ! Creation Timestamp
  1366310206,                             ! Version Timestamp
  {2b313557-877d-484b-aa29-ab697cd39272}; ! Name of Object 1

