
OS:Version,
  {f636aff3-36a4-4545-9cba-e2d175bcc819}, ! Handle
  0.9.3;                                  ! Version Identifier

OS:SizingPeriod:DesignDay,
  {6c6af3e2-6d59-4fbf-85a5-30e25b148086}, ! Handle
  Vance Afb Ann Clg 2% Condns DP=>MDB,    ! Name
  27.9,                                   ! Maximum Dry-Bulb Temperature {C}
  12.3,                                   ! Daily Dry-Bulb Temperature Range {deltaC}
  22,                                     ! Humidity Indicating Conditions at Maximum Dry-Bulb {BasedOnField A3}
  96519,                                  ! Barometric Pressure {Pa}
  5.5,                                    ! Wind Speed {m/s}
  190,                                    ! Wind Direction {deg}
  0,                                      ! Sky Clearness
  0,                                      ! Rain Indicator
  0,                                      ! Snow Indicator
  21,                                     ! Day of Month
  7,                                      ! Month
  SummerDesignDay,                        ! Day Type
  0,                                      ! Daylight Saving Time Indicator
  Dewpoint,                               ! Humidity Indicating Type
  ,                                       ! Humidity Indicating Day Schedule Name
  DefaultMultipliers,                     ! Dry-Bulb Temperature Range Modifier Type
  ,                                       ! Dry-Bulb Temperature Range Modifier Schedule Name
  ASHRAETau,                              ! Solar Model Indicator
  ,                                       ! Beam Solar Day Schedule Name
  ,                                       ! Diffuse Solar Day Schedule Name
  0.425,                                  ! ASHRAE Taub {dimensionless}
  2.194;                                  ! ASHRAE Taud {dimensionless}

OS:ComponentData,
  {76670573-2f03-4202-87ca-99136a53cade}, ! Handle
  Component Data 1,                       ! Name
  {138b7032-2cc4-4dd6-b218-e1168a493627}, ! UUID
  {b0f70efa-dea1-4362-a336-0c020c20ed1e}, ! Version UUID
  1366309964,                             ! Creation Timestamp
  1366309964,                             ! Version Timestamp
  {6c6af3e2-6d59-4fbf-85a5-30e25b148086}; ! Name of Object 1

