
OS:Version,
  {b03efde9-83ae-4317-9788-fa9fbfe454e7}, ! Handle
  0.9.3;                                  ! Version Identifier

OS:SizingPeriod:DesignDay,
  {50ac580c-dd5e-4950-b8cf-91da0e25fc9a}, ! Handle
  SPRINGFIELD Ann Clg 2% Condns DB=>MWB,  ! Name
  31.9,                                   ! Maximum Dry-Bulb Temperature {C}
  11,                                     ! Daily Dry-Bulb Temperature Range {deltaC}
  23.4,                                   ! Humidity Indicating Conditions at Maximum Dry-Bulb {BasedOnField A3}
  96761,                                  ! Barometric Pressure {Pa}
  3.9,                                    ! Wind Speed {m/s}
  180,                                    ! Wind Direction {deg}
  0,                                      ! Sky Clearness
  0,                                      ! Rain Indicator
  0,                                      ! Snow Indicator
  21,                                     ! Day of Month
  7,                                      ! Month
  SummerDesignDay,                        ! Day Type
  0,                                      ! Daylight Saving Time Indicator
  Wetbulb,                                ! Humidity Indicating Type
  ,                                       ! Humidity Indicating Day Schedule Name
  DefaultMultipliers,                     ! Dry-Bulb Temperature Range Modifier Type
  ,                                       ! Dry-Bulb Temperature Range Modifier Schedule Name
  ASHRAETau,                              ! Solar Model Indicator
  ,                                       ! Beam Solar Day Schedule Name
  ,                                       ! Diffuse Solar Day Schedule Name
  0.448,                                  ! ASHRAE Taub {dimensionless}
  2.097;                                  ! ASHRAE Taud {dimensionless}

OS:ComponentData,
  {147ec7f7-b07a-4ce0-aa5f-9c676aa204fb}, ! Handle
  Component Data 1,                       ! Name
  {208ba939-5e05-4b4d-98f4-912e181aad25}, ! UUID
  {df6f2f7f-ca34-4981-8c98-1282e3e740ff}, ! Version UUID
  1366308560,                             ! Creation Timestamp
  1366308560,                             ! Version Timestamp
  {50ac580c-dd5e-4950-b8cf-91da0e25fc9a}; ! Name of Object 1

