
OS:Version,
  {1d3a9893-600b-4bf6-ad19-9101746bb73e}, ! Handle
  0.9.3;                                  ! Version Identifier

OS:SizingPeriod:DesignDay,
  {6667a8e6-956e-46c6-ab79-549d1930c032}, ! Handle
  Oklahoma City/Will Rog Ann Hum_n 99.6% Condns DP=>MCDB, ! Name
  -9.3,                                   ! Maximum Dry-Bulb Temperature {C}
  0,                                      ! Daily Dry-Bulb Temperature Range {deltaC}
  -17.9,                                  ! Humidity Indicating Conditions at Maximum Dry-Bulb {BasedOnField A3}
  96646,                                  ! Barometric Pressure {Pa}
  6.1,                                    ! Wind Speed {m/s}
  0,                                      ! Wind Direction {deg}
  0,                                      ! Sky Clearness
  0,                                      ! Rain Indicator
  0,                                      ! Snow Indicator
  21,                                     ! Day of Month
  1,                                      ! Month
  WinterDesignDay,                        ! Day Type
  0,                                      ! Daylight Saving Time Indicator
  Dewpoint,                               ! Humidity Indicating Type
  ,                                       ! Humidity Indicating Day Schedule Name
  DefaultMultipliers,                     ! Dry-Bulb Temperature Range Modifier Type
  ,                                       ! Dry-Bulb Temperature Range Modifier Schedule Name
  ASHRAEClearSky;                         ! Solar Model Indicator

