
OS:Version,
  {6b7480cd-3b5d-4b76-bbaf-ad248171c6c9}, ! Handle
  0.9.3;                                  ! Version Identifier

OS:SizingPeriod:DesignDay,
  {cd73a750-6f46-4571-8ac5-873c0d68d4ed}, ! Handle
  Memphis International Ap Ann Clg 1% Condns WB=>MDB, ! Name
  32.2,                                   ! Maximum Dry-Bulb Temperature {C}
  9.2,                                    ! Daily Dry-Bulb Temperature Range {deltaC}
  26.2,                                   ! Humidity Indicating Conditions at Maximum Dry-Bulb {BasedOnField A3}
  100356,                                 ! Barometric Pressure {Pa}
  3.8,                                    ! Wind Speed {m/s}
  240,                                    ! Wind Direction {deg}
  0,                                      ! Sky Clearness
  0,                                      ! Rain Indicator
  0,                                      ! Snow Indicator
  21,                                     ! Day of Month
  7,                                      ! Month
  SummerDesignDay,                        ! Day Type
  0,                                      ! Daylight Saving Time Indicator
  Wetbulb,                                ! Humidity Indicating Type
  ,                                       ! Humidity Indicating Day Schedule Name
  DefaultMultipliers,                     ! Dry-Bulb Temperature Range Modifier Type
  ,                                       ! Dry-Bulb Temperature Range Modifier Schedule Name
  ASHRAETau,                              ! Solar Model Indicator
  ,                                       ! Beam Solar Day Schedule Name
  ,                                       ! Diffuse Solar Day Schedule Name
  0.512,                                  ! ASHRAE Taub {dimensionless}
  1.892;                                  ! ASHRAE Taud {dimensionless}

OS:ComponentData,
  {fcb5642c-0002-4a2c-98d2-5d53e9859fb8}, ! Handle
  Component Data 1,                       ! Name
  {7c93fd19-928c-452b-87e1-3cb4759b6e40}, ! UUID
  {b05ca137-e9c7-4181-962a-bc063da2bd38}, ! Version UUID
  1366310530,                             ! Creation Timestamp
  1366310530,                             ! Version Timestamp
  {cd73a750-6f46-4571-8ac5-873c0d68d4ed}; ! Name of Object 1

