
OS:Version,
  {5670d7cd-eeb1-4153-a0ea-5df4c4aea158}, ! Handle
  0.9.3;                                  ! Version Identifier

OS:SizingPeriod:DesignDay,
  {ff1e7b4c-f304-4563-840a-fee9d5b1fa5d}, ! Handle
  Sheridan Ann Hum_n 99% Condns DP=>MCDB, ! Name
  -20.9,                                  ! Maximum Dry-Bulb Temperature {C}
  0,                                      ! Daily Dry-Bulb Temperature Range {deltaC}
  -25.2,                                  ! Humidity Indicating Conditions at Maximum Dry-Bulb {BasedOnField A3}
  87619,                                  ! Barometric Pressure {Pa}
  2,                                      ! Wind Speed {m/s}
  280,                                    ! Wind Direction {deg}
  0,                                      ! Sky Clearness
  0,                                      ! Rain Indicator
  0,                                      ! Snow Indicator
  21,                                     ! Day of Month
  12,                                     ! Month
  WinterDesignDay,                        ! Day Type
  0,                                      ! Daylight Saving Time Indicator
  Dewpoint,                               ! Humidity Indicating Type
  ,                                       ! Humidity Indicating Day Schedule Name
  DefaultMultipliers,                     ! Dry-Bulb Temperature Range Modifier Type
  ,                                       ! Dry-Bulb Temperature Range Modifier Schedule Name
  ASHRAEClearSky;                         ! Solar Model Indicator

OS:ComponentData,
  {84c139e9-3730-4637-9bd5-e400f96c2a39}, ! Handle
  Component Data 1,                       ! Name
  {3e95a406-64cd-4939-a992-7f76816b45c3}, ! UUID
  {b4ac5c23-a307-4aa1-baeb-c1d820da0b8b}, ! Version UUID
  1366311780,                             ! Creation Timestamp
  1366311780,                             ! Version Timestamp
  {ff1e7b4c-f304-4563-840a-fee9d5b1fa5d}; ! Name of Object 1

