
OS:Version,
  {f76763a9-cb9e-4e3f-b83c-6d6ebb86dd82}, ! Handle
  0.9.3;                                  ! Version Identifier

OS:SizingPeriod:DesignDay,
  {6ff0c20d-ece1-4394-ba61-79cadf4c00e6}, ! Handle
  Wrangell Ann Htg Wind 99% Condns WS=>MCDB, ! Name
  2.1,                                    ! Maximum Dry-Bulb Temperature {C}
  0,                                      ! Daily Dry-Bulb Temperature Range {deltaC}
  2.1,                                    ! Humidity Indicating Conditions at Maximum Dry-Bulb {BasedOnField A3}
  101169,                                 ! Barometric Pressure {Pa}
  10.9,                                   ! Wind Speed {m/s}
  330,                                    ! Wind Direction {deg}
  0,                                      ! Sky Clearness
  0,                                      ! Rain Indicator
  0,                                      ! Snow Indicator
  21,                                     ! Day of Month
  1,                                      ! Month
  WinterDesignDay,                        ! Day Type
  0,                                      ! Daylight Saving Time Indicator
  Wetbulb,                                ! Humidity Indicating Type
  ,                                       ! Humidity Indicating Day Schedule Name
  DefaultMultipliers,                     ! Dry-Bulb Temperature Range Modifier Type
  ,                                       ! Dry-Bulb Temperature Range Modifier Schedule Name
  ASHRAEClearSky;                         ! Solar Model Indicator

OS:ComponentData,
  {41ddfd3d-e5bb-4c5c-9fe2-3e0c1d4713ef}, ! Handle
  Component Data 1,                       ! Name
  {00363cd6-07f4-482b-92bc-dfb9c1f28022}, ! UUID
  {6b3b1256-1ce0-4ffe-a889-7ce589b643e4}, ! Version UUID
  1366305617,                             ! Creation Timestamp
  1366305617,                             ! Version Timestamp
  {6ff0c20d-ece1-4394-ba61-79cadf4c00e6}; ! Name of Object 1

