
OS:Version,
  {d6145a98-8fb8-48dc-91f5-599cf2454b14}, ! Handle
  0.9.3;                                  ! Version Identifier

OS:SizingPeriod:DesignDay,
  {214a8685-30ee-4999-9e73-54de1e1c1a44}, ! Handle
  Siloam Spring Awos Ann Htg Wind 99.6% Condns WS=>MCDB, ! Name
  5.8,                                    ! Maximum Dry-Bulb Temperature {C}
  0,                                      ! Daily Dry-Bulb Temperature Range {deltaC}
  5.8,                                    ! Humidity Indicating Conditions at Maximum Dry-Bulb {BasedOnField A3}
  97028,                                  ! Barometric Pressure {Pa}
  11.4,                                   ! Wind Speed {m/s}
  10,                                     ! Wind Direction {deg}
  0,                                      ! Sky Clearness
  0,                                      ! Rain Indicator
  0,                                      ! Snow Indicator
  21,                                     ! Day of Month
  1,                                      ! Month
  WinterDesignDay,                        ! Day Type
  0,                                      ! Daylight Saving Time Indicator
  Wetbulb,                                ! Humidity Indicating Type
  ,                                       ! Humidity Indicating Day Schedule Name
  DefaultMultipliers,                     ! Dry-Bulb Temperature Range Modifier Type
  ,                                       ! Dry-Bulb Temperature Range Modifier Schedule Name
  ASHRAEClearSky;                         ! Solar Model Indicator

OS:ComponentData,
  {6009d506-fe42-442d-b357-84f56776b6fc}, ! Handle
  Component Data 1,                       ! Name
  {bff135f8-83d6-445d-951a-483326d520fb}, ! UUID
  {59e8fdcc-4fea-4fbb-8e08-48f790a4d778}, ! Version UUID
  1366306246,                             ! Creation Timestamp
  1366306246,                             ! Version Timestamp
  {214a8685-30ee-4999-9e73-54de1e1c1a44}; ! Name of Object 1

