
OS:Version,
  {b7fbe51b-861b-4710-89c9-6dbdd758c550}, ! Handle
  0.9.3;                                  ! Version Identifier

OS:SizingPeriod:DesignDay,
  {efab310d-ea7e-4e49-a82c-c2e856ffe7a1}, ! Handle
  Oklahoma City Tinker Afb Ann Htg Wind 99% Condns WS=>MCDB, ! Name
  4.8,                                    ! Maximum Dry-Bulb Temperature {C}
  0,                                      ! Daily Dry-Bulb Temperature Range {deltaC}
  4.8,                                    ! Humidity Indicating Conditions at Maximum Dry-Bulb {BasedOnField A3}
  96796,                                  ! Barometric Pressure {Pa}
  11.9,                                   ! Wind Speed {m/s}
  10,                                     ! Wind Direction {deg}
  0,                                      ! Sky Clearness
  0,                                      ! Rain Indicator
  0,                                      ! Snow Indicator
  21,                                     ! Day of Month
  1,                                      ! Month
  WinterDesignDay,                        ! Day Type
  0,                                      ! Daylight Saving Time Indicator
  Wetbulb,                                ! Humidity Indicating Type
  ,                                       ! Humidity Indicating Day Schedule Name
  DefaultMultipliers,                     ! Dry-Bulb Temperature Range Modifier Type
  ,                                       ! Dry-Bulb Temperature Range Modifier Schedule Name
  ASHRAEClearSky;                         ! Solar Model Indicator

OS:ComponentData,
  {b6a0c540-fdc8-4917-bf86-b7b6ab893377}, ! Handle
  Component Data 1,                       ! Name
  {558cb082-7f9c-4a0b-b918-66a32608e96a}, ! UUID
  {26ae840c-6e88-43a2-8e52-b22d39690fab}, ! Version UUID
  1366309912,                             ! Creation Timestamp
  1366309912,                             ! Version Timestamp
  {efab310d-ea7e-4e49-a82c-c2e856ffe7a1}; ! Name of Object 1

