
OS:Version,
  {1d6eaf0f-02fc-4bf3-9396-db5e6e22b326}, ! Handle
  0.9.3;                                  ! Version Identifier

OS:SizingPeriod:DesignDay,
  {f5c46a4d-9b8a-4eb7-a8d3-a6b1a1981d77}, ! Handle
  Willow Grove Nas Ann Clg .4% Condns DB=>MWB, ! Name
  33.7,                                   ! Maximum Dry-Bulb Temperature {C}
  10.5,                                   ! Daily Dry-Bulb Temperature Range {deltaC}
  23.9,                                   ! Humidity Indicating Conditions at Maximum Dry-Bulb {BasedOnField A3}
  100106,                                 ! Barometric Pressure {Pa}
  2.5,                                    ! Wind Speed {m/s}
  270,                                    ! Wind Direction {deg}
  0,                                      ! Sky Clearness
  0,                                      ! Rain Indicator
  0,                                      ! Snow Indicator
  21,                                     ! Day of Month
  7,                                      ! Month
  SummerDesignDay,                        ! Day Type
  0,                                      ! Daylight Saving Time Indicator
  Wetbulb,                                ! Humidity Indicating Type
  ,                                       ! Humidity Indicating Day Schedule Name
  DefaultMultipliers,                     ! Dry-Bulb Temperature Range Modifier Type
  ,                                       ! Dry-Bulb Temperature Range Modifier Schedule Name
  ASHRAETau,                              ! Solar Model Indicator
  ,                                       ! Beam Solar Day Schedule Name
  ,                                       ! Diffuse Solar Day Schedule Name
  0.524,                                  ! ASHRAE Taub {dimensionless}
  1.834;                                  ! ASHRAE Taud {dimensionless}

OS:ComponentData,
  {7167b1f2-235c-4f5d-9124-a738819682e1}, ! Handle
  Component Data 1,                       ! Name
  {95a05baf-7dfb-4bca-96f6-3e87cc05192f}, ! UUID
  {f44336c2-75b7-4819-957c-7fab4f4ce300}, ! Version UUID
  1366310284,                             ! Creation Timestamp
  1366310284,                             ! Version Timestamp
  {f5c46a4d-9b8a-4eb7-a8d3-a6b1a1981d77}; ! Name of Object 1

