
OS:Version,
  {fa4e5f76-c04d-4833-8b08-4284aed634ec}, ! Handle
  0.9.3;                                  ! Version Identifier

OS:SizingPeriod:DesignDay,
  {cdbabaa0-bf49-48b7-8609-3ec98a9c05a0}, ! Handle
  MEDFORD Ann Clg 2% Condns Enth=>MDB,    ! Name
  31.4,                                   ! Maximum Dry-Bulb Temperature {C}
  17.9,                                   ! Daily Dry-Bulb Temperature Range {deltaC}
  54700,                                  ! Humidity Indicating Conditions at Maximum Dry-Bulb {BasedOnField A3}
  96657,                                  ! Barometric Pressure {Pa}
  3.9,                                    ! Wind Speed {m/s}
  290,                                    ! Wind Direction {deg}
  0,                                      ! Sky Clearness
  0,                                      ! Rain Indicator
  0,                                      ! Snow Indicator
  21,                                     ! Day of Month
  7,                                      ! Month
  SummerDesignDay,                        ! Day Type
  0,                                      ! Daylight Saving Time Indicator
  Enthalpy,                               ! Humidity Indicating Type
  ,                                       ! Humidity Indicating Day Schedule Name
  DefaultMultipliers,                     ! Dry-Bulb Temperature Range Modifier Type
  ,                                       ! Dry-Bulb Temperature Range Modifier Schedule Name
  ASHRAETau,                              ! Solar Model Indicator
  ,                                       ! Beam Solar Day Schedule Name
  ,                                       ! Diffuse Solar Day Schedule Name
  0.356,                                  ! ASHRAE Taub {dimensionless}
  2.582;                                  ! ASHRAE Taud {dimensionless}

OS:ComponentData,
  {fffdbff3-35ad-46d5-90e0-12392ba70b80}, ! Handle
  Component Data 1,                       ! Name
  {6f73f667-7a40-4dd8-81e7-87a1a5d8f813}, ! UUID
  {d944e4f2-93af-455f-bafc-cbaf5214f4c1}, ! Version UUID
  1366310042,                             ! Creation Timestamp
  1366310042,                             ! Version Timestamp
  {cdbabaa0-bf49-48b7-8609-3ec98a9c05a0}; ! Name of Object 1

