
OS:Version,
  {5bf28942-a632-430b-a567-59e62936e776}, ! Handle
  0.9.3;                                  ! Version Identifier

OS:SizingPeriod:DesignDay,
  {d63197ee-7e51-46d4-86d1-f73fae5f75a0}, ! Handle
  New Bedford Rgnl Ann Clg .4% Condns WB=>MDB, ! Name
  28.6,                                   ! Maximum Dry-Bulb Temperature {C}
  9.9,                                    ! Daily Dry-Bulb Temperature Range {deltaC}
  24.3,                                   ! Humidity Indicating Conditions at Maximum Dry-Bulb {BasedOnField A3}
  101025,                                 ! Barometric Pressure {Pa}
  4.6,                                    ! Wind Speed {m/s}
  220,                                    ! Wind Direction {deg}
  0,                                      ! Sky Clearness
  0,                                      ! Rain Indicator
  0,                                      ! Snow Indicator
  21,                                     ! Day of Month
  7,                                      ! Month
  SummerDesignDay,                        ! Day Type
  0,                                      ! Daylight Saving Time Indicator
  Wetbulb,                                ! Humidity Indicating Type
  ,                                       ! Humidity Indicating Day Schedule Name
  DefaultMultipliers,                     ! Dry-Bulb Temperature Range Modifier Type
  ,                                       ! Dry-Bulb Temperature Range Modifier Schedule Name
  ASHRAETau,                              ! Solar Model Indicator
  ,                                       ! Beam Solar Day Schedule Name
  ,                                       ! Diffuse Solar Day Schedule Name
  0.512,                                  ! ASHRAE Taub {dimensionless}
  1.873;                                  ! ASHRAE Taud {dimensionless}

OS:ComponentData,
  {6011c4fc-2a50-484d-96b2-5e8f7670b75a}, ! Handle
  Component Data 1,                       ! Name
  {25274640-d96d-4fb6-8836-d10a170ebeac}, ! UUID
  {94c4f175-1035-452b-87cd-d7af29d4ee59}, ! Version UUID
  1366307806,                             ! Creation Timestamp
  1366307806,                             ! Version Timestamp
  {d63197ee-7e51-46d4-86d1-f73fae5f75a0}; ! Name of Object 1

