
OS:Version,
  {28d46db8-4833-4455-bfcd-5bf914512e36}, ! Handle
  0.9.3;                                  ! Version Identifier

OS:SizingPeriod:DesignDay,
  {16952f9c-8093-4562-a3c6-af2e1092d725}, ! Handle
  Nome Municipal Arpt Ann Htg Wind 99.6% Condns WS=>MCDB, ! Name
  -9.9,                                   ! Maximum Dry-Bulb Temperature {C}
  0,                                      ! Daily Dry-Bulb Temperature Range {deltaC}
  -9.9,                                   ! Humidity Indicating Conditions at Maximum Dry-Bulb {BasedOnField A3}
  101277,                                 ! Barometric Pressure {Pa}
  15,                                     ! Wind Speed {m/s}
  10,                                     ! Wind Direction {deg}
  0,                                      ! Sky Clearness
  0,                                      ! Rain Indicator
  0,                                      ! Snow Indicator
  21,                                     ! Day of Month
  1,                                      ! Month
  WinterDesignDay,                        ! Day Type
  0,                                      ! Daylight Saving Time Indicator
  Wetbulb,                                ! Humidity Indicating Type
  ,                                       ! Humidity Indicating Day Schedule Name
  DefaultMultipliers,                     ! Dry-Bulb Temperature Range Modifier Type
  ,                                       ! Dry-Bulb Temperature Range Modifier Schedule Name
  ASHRAEClearSky;                         ! Solar Model Indicator

OS:ComponentData,
  {7f624efa-6ffd-4456-8133-1bf4b890d480}, ! Handle
  Component Data 1,                       ! Name
  {e6291db2-f70a-4189-a403-add1849e5800}, ! UUID
  {c08b2d23-d1fc-40e3-b40e-dfce078c5653}, ! Version UUID
  1366305460,                             ! Creation Timestamp
  1366305460,                             ! Version Timestamp
  {16952f9c-8093-4562-a3c6-af2e1092d725}; ! Name of Object 1

