
OS:Version,
  {c1b403c8-668c-4e6b-a44f-ef53cb0ff0ee}, ! Handle
  0.9.3;                                  ! Version Identifier

OS:SizingPeriod:DesignDay,
  {b40986ce-f4ab-4f60-ad19-19a2eddb3ca1}, ! Handle
  Mountain View Moffett Fld Nas Ann Hum_n 99.6% Condns DP=>MCDB, ! Name
  8.8,                                    ! Maximum Dry-Bulb Temperature {C}
  0,                                      ! Daily Dry-Bulb Temperature Range {deltaC}
  -6.6,                                   ! Humidity Indicating Conditions at Maximum Dry-Bulb {BasedOnField A3}
  101181,                                 ! Barometric Pressure {Pa}
  0.5,                                    ! Wind Speed {m/s}
  270,                                    ! Wind Direction {deg}
  0,                                      ! Sky Clearness
  0,                                      ! Rain Indicator
  0,                                      ! Snow Indicator
  21,                                     ! Day of Month
  12,                                     ! Month
  WinterDesignDay,                        ! Day Type
  0,                                      ! Daylight Saving Time Indicator
  Dewpoint,                               ! Humidity Indicating Type
  ,                                       ! Humidity Indicating Day Schedule Name
  DefaultMultipliers,                     ! Dry-Bulb Temperature Range Modifier Type
  ,                                       ! Dry-Bulb Temperature Range Modifier Schedule Name
  ASHRAEClearSky;                         ! Solar Model Indicator

OS:ComponentData,
  {5da2506a-4873-4407-a49b-e277d7db395c}, ! Handle
  Component Data 1,                       ! Name
  {9102b8e7-deeb-455d-8ae5-f9e366067ac1}, ! UUID
  {5f6b5d34-7fb4-4bcd-a0a8-f6a64e251397}, ! Version UUID
  1366306512,                             ! Creation Timestamp
  1366306512,                             ! Version Timestamp
  {b40986ce-f4ab-4f60-ad19-19a2eddb3ca1}; ! Name of Object 1

