
OS:Version,
  {dbfda92a-643a-4a9e-bb66-51299903fe02}, ! Handle
  0.9.3;                                  ! Version Identifier

OS:SizingPeriod:DesignDay,
  {6be026c2-7bc0-4075-b222-fc8ff3073f84}, ! Handle
  Sacramento Executive Arpt Ann Clg 1% Condns Enth=>MDB, ! Name
  34,                                     ! Maximum Dry-Bulb Temperature {C}
  18.1,                                   ! Daily Dry-Bulb Temperature Range {deltaC}
  62200,                                  ! Humidity Indicating Conditions at Maximum Dry-Bulb {BasedOnField A3}
  101265,                                 ! Barometric Pressure {Pa}
  3.4,                                    ! Wind Speed {m/s}
  220,                                    ! Wind Direction {deg}
  0,                                      ! Sky Clearness
  0,                                      ! Rain Indicator
  0,                                      ! Snow Indicator
  21,                                     ! Day of Month
  7,                                      ! Month
  SummerDesignDay,                        ! Day Type
  0,                                      ! Daylight Saving Time Indicator
  Enthalpy,                               ! Humidity Indicating Type
  ,                                       ! Humidity Indicating Day Schedule Name
  DefaultMultipliers,                     ! Dry-Bulb Temperature Range Modifier Type
  ,                                       ! Dry-Bulb Temperature Range Modifier Schedule Name
  ASHRAETau,                              ! Solar Model Indicator
  ,                                       ! Beam Solar Day Schedule Name
  ,                                       ! Diffuse Solar Day Schedule Name
  0.382,                                  ! ASHRAE Taub {dimensionless}
  2.325;                                  ! ASHRAE Taud {dimensionless}

OS:ComponentData,
  {697928d2-fe41-4e1b-9aea-943a08a9449c}, ! Handle
  Component Data 1,                       ! Name
  {a338e16d-daf7-45ec-8a4c-3c176a48fd28}, ! UUID
  {70c3fc7b-2b3e-4719-ba06-0ad0c0c6f999}, ! Version UUID
  1366306564,                             ! Creation Timestamp
  1366306564,                             ! Version Timestamp
  {6be026c2-7bc0-4075-b222-fc8ff3073f84}; ! Name of Object 1

