
OS:Version,
  {c35bf9dc-65a2-4f11-bb18-688de0d5f273}, ! Handle
  0.9.3;                                  ! Version Identifier

OS:SizingPeriod:DesignDay,
  {94ae6395-f579-49c8-b8d1-be84b14ccead}, ! Handle
  Providence Ann Htg Wind 99.6% Condns WS=>MCDB, ! Name
  3.5,                                    ! Maximum Dry-Bulb Temperature {C}
  0,                                      ! Daily Dry-Bulb Temperature Range {deltaC}
  3.5,                                    ! Humidity Indicating Conditions at Maximum Dry-Bulb {BasedOnField A3}
  101097,                                 ! Barometric Pressure {Pa}
  12.7,                                   ! Wind Speed {m/s}
  330,                                    ! Wind Direction {deg}
  0,                                      ! Sky Clearness
  0,                                      ! Rain Indicator
  0,                                      ! Snow Indicator
  21,                                     ! Day of Month
  1,                                      ! Month
  WinterDesignDay,                        ! Day Type
  0,                                      ! Daylight Saving Time Indicator
  Wetbulb,                                ! Humidity Indicating Type
  ,                                       ! Humidity Indicating Day Schedule Name
  DefaultMultipliers,                     ! Dry-Bulb Temperature Range Modifier Type
  ,                                       ! Dry-Bulb Temperature Range Modifier Schedule Name
  ASHRAEClearSky;                         ! Solar Model Indicator

OS:ComponentData,
  {961990af-aeef-46ab-a634-053a2a068ab1}, ! Handle
  Component Data 1,                       ! Name
  {d2108743-d852-4d5c-9c73-d63ad397a69f}, ! UUID
  {52d014f6-6ff2-4d42-a615-e418963eb618}, ! Version UUID
  1366310297,                             ! Creation Timestamp
  1366310297,                             ! Version Timestamp
  {94ae6395-f579-49c8-b8d1-be84b14ccead}; ! Name of Object 1

