
OS:Version,
  {26e23341-0b10-470e-9191-368bbd1308ee}, ! Handle
  0.9.3;                                  ! Version Identifier

OS:SizingPeriod:DesignDay,
  {121d19a6-26f5-4e3f-afb9-16159d34b127}, ! Handle
  Whidbey Island Nas Ann Clg 1% Condns DP=>MDB, ! Name
  17.6,                                   ! Maximum Dry-Bulb Temperature {C}
  7.8,                                    ! Daily Dry-Bulb Temperature Range {deltaC}
  14.5,                                   ! Humidity Indicating Conditions at Maximum Dry-Bulb {BasedOnField A3}
  101205,                                 ! Barometric Pressure {Pa}
  3,                                      ! Wind Speed {m/s}
  260,                                    ! Wind Direction {deg}
  0,                                      ! Sky Clearness
  0,                                      ! Rain Indicator
  0,                                      ! Snow Indicator
  21,                                     ! Day of Month
  8,                                      ! Month
  SummerDesignDay,                        ! Day Type
  0,                                      ! Daylight Saving Time Indicator
  Dewpoint,                               ! Humidity Indicating Type
  ,                                       ! Humidity Indicating Day Schedule Name
  DefaultMultipliers,                     ! Dry-Bulb Temperature Range Modifier Type
  ,                                       ! Dry-Bulb Temperature Range Modifier Schedule Name
  ASHRAETau,                              ! Solar Model Indicator
  ,                                       ! Beam Solar Day Schedule Name
  ,                                       ! Diffuse Solar Day Schedule Name
  0.356,                                  ! ASHRAE Taub {dimensionless}
  2.524;                                  ! ASHRAE Taud {dimensionless}

