
OS:Version,
  {04098392-5006-4ea8-903d-1df62fde7f86}, ! Handle
  0.9.3;                                  ! Version Identifier

OS:SizingPeriod:DesignDay,
  {5fce33d9-59cb-4de4-89de-848ef906f0ee}, ! Handle
  MILWAUKEE Ann Hum_n 99.6% Condns DP=>MCDB, ! Name
  -18.9,                                  ! Maximum Dry-Bulb Temperature {C}
  0,                                      ! Daily Dry-Bulb Temperature Range {deltaC}
  -26.1,                                  ! Humidity Indicating Conditions at Maximum Dry-Bulb {BasedOnField A3}
  98816,                                  ! Barometric Pressure {Pa}
  5.7,                                    ! Wind Speed {m/s}
  300,                                    ! Wind Direction {deg}
  0,                                      ! Sky Clearness
  0,                                      ! Rain Indicator
  0,                                      ! Snow Indicator
  21,                                     ! Day of Month
  1,                                      ! Month
  WinterDesignDay,                        ! Day Type
  0,                                      ! Daylight Saving Time Indicator
  Dewpoint,                               ! Humidity Indicating Type
  ,                                       ! Humidity Indicating Day Schedule Name
  DefaultMultipliers,                     ! Dry-Bulb Temperature Range Modifier Type
  ,                                       ! Dry-Bulb Temperature Range Modifier Schedule Name
  ASHRAEClearSky;                         ! Solar Model Indicator

OS:ComponentData,
  {5c71de43-7304-466b-8b2d-da7a307efed2}, ! Handle
  Component Data 1,                       ! Name
  {0c3bd10c-a025-47ed-a6b1-831259cc3e79}, ! UUID
  {c38ee375-8983-422e-9dfc-f1d648f777d2}, ! Version UUID
  1366311562,                             ! Creation Timestamp
  1366311562,                             ! Version Timestamp
  {5fce33d9-59cb-4de4-89de-848ef906f0ee}; ! Name of Object 1

