
OS:Version,
  {5d3a6fcf-4675-4a56-9e1e-e862ff671f8c}, ! Handle
  0.9.3;                                  ! Version Identifier

OS:SizingPeriod:DesignDay,
  {4187c635-b948-4e8a-9fd1-eb546ecf089d}, ! Handle
  Oxford  Awos Ann Clg .4% Condns WB=>MDB, ! Name
  28.4,                                   ! Maximum Dry-Bulb Temperature {C}
  10.3,                                   ! Daily Dry-Bulb Temperature Range {deltaC}
  24.1,                                   ! Humidity Indicating Conditions at Maximum Dry-Bulb {BasedOnField A3}
  98686,                                  ! Barometric Pressure {Pa}
  2.7,                                    ! Wind Speed {m/s}
  300,                                    ! Wind Direction {deg}
  0,                                      ! Sky Clearness
  0,                                      ! Rain Indicator
  0,                                      ! Snow Indicator
  21,                                     ! Day of Month
  7,                                      ! Month
  SummerDesignDay,                        ! Day Type
  0,                                      ! Daylight Saving Time Indicator
  Wetbulb,                                ! Humidity Indicating Type
  ,                                       ! Humidity Indicating Day Schedule Name
  DefaultMultipliers,                     ! Dry-Bulb Temperature Range Modifier Type
  ,                                       ! Dry-Bulb Temperature Range Modifier Schedule Name
  ASHRAETau,                              ! Solar Model Indicator
  ,                                       ! Beam Solar Day Schedule Name
  ,                                       ! Diffuse Solar Day Schedule Name
  0.477,                                  ! ASHRAE Taub {dimensionless}
  1.955;                                  ! ASHRAE Taud {dimensionless}

OS:ComponentData,
  {f3c610f3-1865-42f3-9b29-75639d7e55b0}, ! Handle
  Component Data 1,                       ! Name
  {12e70006-85f2-4395-b552-1fba3997701d}, ! UUID
  {b27eed39-2741-40f3-b979-626484b08281}, ! Version UUID
  1366306766,                             ! Creation Timestamp
  1366306766,                             ! Version Timestamp
  {4187c635-b948-4e8a-9fd1-eb546ecf089d}; ! Name of Object 1

