
OS:Version,
  {0df54eef-2b04-4ff6-ae97-ef85b9898db3}, ! Handle
  0.9.3;                                  ! Version Identifier

OS:SizingPeriod:DesignDay,
  {00585ef4-145b-44c0-9ad0-5cef0155dca8}, ! Handle
  Quincy Muni Baldwin Fld Ann Htg Wind 99% Condns WS=>MCDB, ! Name
  -4.4,                                   ! Maximum Dry-Bulb Temperature {C}
  0,                                      ! Daily Dry-Bulb Temperature Range {deltaC}
  -4.4,                                   ! Humidity Indicating Conditions at Maximum Dry-Bulb {BasedOnField A3}
  98557,                                  ! Barometric Pressure {Pa}
  11.9,                                   ! Wind Speed {m/s}
  280,                                    ! Wind Direction {deg}
  0,                                      ! Sky Clearness
  0,                                      ! Rain Indicator
  0,                                      ! Snow Indicator
  21,                                     ! Day of Month
  1,                                      ! Month
  WinterDesignDay,                        ! Day Type
  0,                                      ! Daylight Saving Time Indicator
  Wetbulb,                                ! Humidity Indicating Type
  ,                                       ! Humidity Indicating Day Schedule Name
  DefaultMultipliers,                     ! Dry-Bulb Temperature Range Modifier Type
  ,                                       ! Dry-Bulb Temperature Range Modifier Schedule Name
  ASHRAEClearSky;                         ! Solar Model Indicator

OS:ComponentData,
  {2d5fef09-3510-4298-aa72-c17557941b0e}, ! Handle
  Component Data 1,                       ! Name
  {4959e54e-5b00-4c53-bbb3-02f7acd84dad}, ! UUID
  {30b59aef-bad7-4ec3-b382-59c69c7c1226}, ! Version UUID
  1366307388,                             ! Creation Timestamp
  1366307388,                             ! Version Timestamp
  {00585ef4-145b-44c0-9ad0-5cef0155dca8}; ! Name of Object 1

