
OS:Version,
  {db1b2376-4e1b-4a8c-bdd5-adb9ed564c33}, ! Handle
  0.9.3;                                  ! Version Identifier

OS:SizingPeriod:DesignDay,
  {81b6dcd8-9b12-4838-9479-fcd2f22a32c3}, ! Handle
  Marshfield Muni Ann Hum_n 99% Condns DP=>MCDB, ! Name
  -21.2,                                  ! Maximum Dry-Bulb Temperature {C}
  0,                                      ! Daily Dry-Bulb Temperature Range {deltaC}
  -26.3,                                  ! Humidity Indicating Conditions at Maximum Dry-Bulb {BasedOnField A3}
  96738,                                  ! Barometric Pressure {Pa}
  2.5,                                    ! Wind Speed {m/s}
  280,                                    ! Wind Direction {deg}
  0,                                      ! Sky Clearness
  0,                                      ! Rain Indicator
  0,                                      ! Snow Indicator
  21,                                     ! Day of Month
  1,                                      ! Month
  WinterDesignDay,                        ! Day Type
  0,                                      ! Daylight Saving Time Indicator
  Dewpoint,                               ! Humidity Indicating Type
  ,                                       ! Humidity Indicating Day Schedule Name
  DefaultMultipliers,                     ! Dry-Bulb Temperature Range Modifier Type
  ,                                       ! Dry-Bulb Temperature Range Modifier Schedule Name
  ASHRAEClearSky;                         ! Solar Model Indicator

OS:ComponentData,
  {2c780bc4-22c6-4533-8454-1ae77b14592b}, ! Handle
  Component Data 1,                       ! Name
  {0b0eb814-fdf4-42b0-b752-a89c52618bf1}, ! UUID
  {a4d122bc-db2d-4e52-b350-ef488a3cd3ed}, ! Version UUID
  1366311542,                             ! Creation Timestamp
  1366311542,                             ! Version Timestamp
  {81b6dcd8-9b12-4838-9479-fcd2f22a32c3}; ! Name of Object 1

