
OS:Version,
  {f19b9277-6a7d-4c57-81a8-334dfb97db28}, ! Handle
  0.9.3;                                  ! Version Identifier

OS:SizingPeriod:DesignDay,
  {3d0b8cee-bcc4-44b7-8163-e957ec0a7745}, ! Handle
  Whidbey Island Nas Ann Clg 2% Condns DB=>MWB, ! Name
  19.4,                                   ! Maximum Dry-Bulb Temperature {C}
  7.8,                                    ! Daily Dry-Bulb Temperature Range {deltaC}
  15.1,                                   ! Humidity Indicating Conditions at Maximum Dry-Bulb {BasedOnField A3}
  101205,                                 ! Barometric Pressure {Pa}
  3,                                      ! Wind Speed {m/s}
  260,                                    ! Wind Direction {deg}
  0,                                      ! Sky Clearness
  0,                                      ! Rain Indicator
  0,                                      ! Snow Indicator
  21,                                     ! Day of Month
  8,                                      ! Month
  SummerDesignDay,                        ! Day Type
  0,                                      ! Daylight Saving Time Indicator
  Wetbulb,                                ! Humidity Indicating Type
  ,                                       ! Humidity Indicating Day Schedule Name
  DefaultMultipliers,                     ! Dry-Bulb Temperature Range Modifier Type
  ,                                       ! Dry-Bulb Temperature Range Modifier Schedule Name
  ASHRAETau,                              ! Solar Model Indicator
  ,                                       ! Beam Solar Day Schedule Name
  ,                                       ! Diffuse Solar Day Schedule Name
  0.356,                                  ! ASHRAE Taub {dimensionless}
  2.524;                                  ! ASHRAE Taud {dimensionless}

OS:ComponentData,
  {e01a6c1f-abc8-4c06-b907-457ee977f8a1}, ! Handle
  Component Data 1,                       ! Name
  {5daf7129-ca50-4186-b803-24fdba058e30}, ! UUID
  {0a07384a-fcd5-4d14-91c2-50e483ffc584}, ! Version UUID
  1366311437,                             ! Creation Timestamp
  1366311437,                             ! Version Timestamp
  {3d0b8cee-bcc4-44b7-8163-e957ec0a7745}; ! Name of Object 1

