
OS:Version,
  {647e98e3-775a-4221-99a9-a6d949af1013}, ! Handle
  0.9.3;                                  ! Version Identifier

OS:SizingPeriod:DesignDay,
  {1dc503c1-fc58-47fd-90d1-2071631cadc0}, ! Handle
  SPRINGFIELD Ann Clg .4% Condns Enth=>MDB, ! Name
  31.6,                                   ! Maximum Dry-Bulb Temperature {C}
  11,                                     ! Daily Dry-Bulb Temperature Range {deltaC}
  79600,                                  ! Humidity Indicating Conditions at Maximum Dry-Bulb {BasedOnField A3}
  96761,                                  ! Barometric Pressure {Pa}
  3.9,                                    ! Wind Speed {m/s}
  180,                                    ! Wind Direction {deg}
  0,                                      ! Sky Clearness
  0,                                      ! Rain Indicator
  0,                                      ! Snow Indicator
  21,                                     ! Day of Month
  7,                                      ! Month
  SummerDesignDay,                        ! Day Type
  0,                                      ! Daylight Saving Time Indicator
  Enthalpy,                               ! Humidity Indicating Type
  ,                                       ! Humidity Indicating Day Schedule Name
  DefaultMultipliers,                     ! Dry-Bulb Temperature Range Modifier Type
  ,                                       ! Dry-Bulb Temperature Range Modifier Schedule Name
  ASHRAETau,                              ! Solar Model Indicator
  ,                                       ! Beam Solar Day Schedule Name
  ,                                       ! Diffuse Solar Day Schedule Name
  0.448,                                  ! ASHRAE Taub {dimensionless}
  2.097;                                  ! ASHRAE Taud {dimensionless}

OS:ComponentData,
  {f3186557-44b7-46a9-856c-085e8f41a6b8}, ! Handle
  Component Data 1,                       ! Name
  {7e096dee-07bd-4442-be6b-5a651a181aa0}, ! UUID
  {d70f349e-5b87-4b70-b35c-932c35d3eecd}, ! Version UUID
  1366308561,                             ! Creation Timestamp
  1366308561,                             ! Version Timestamp
  {1dc503c1-fc58-47fd-90d1-2071631cadc0}; ! Name of Object 1

