
OS:Version,
  {a2586146-9729-4207-bd4f-42a772ba41ac}, ! Handle
  0.9.3;                                  ! Version Identifier

OS:SizingPeriod:DesignDay,
  {6dec7a32-9469-48de-8e3e-e4302bead7ab}, ! Handle
  Middleton Island Aut Ann Clg .4% Condns Enth=>MDB, ! Name
  17.1,                                   ! Maximum Dry-Bulb Temperature {C}
  3.4,                                    ! Daily Dry-Bulb Temperature Range {deltaC}
  40000,                                  ! Humidity Indicating Conditions at Maximum Dry-Bulb {BasedOnField A3}
  101157,                                 ! Barometric Pressure {Pa}
  3.7,                                    ! Wind Speed {m/s}
  270,                                    ! Wind Direction {deg}
  0,                                      ! Sky Clearness
  0,                                      ! Rain Indicator
  0,                                      ! Snow Indicator
  21,                                     ! Day of Month
  8,                                      ! Month
  SummerDesignDay,                        ! Day Type
  0,                                      ! Daylight Saving Time Indicator
  Enthalpy,                               ! Humidity Indicating Type
  ,                                       ! Humidity Indicating Day Schedule Name
  DefaultMultipliers,                     ! Dry-Bulb Temperature Range Modifier Type
  ,                                       ! Dry-Bulb Temperature Range Modifier Schedule Name
  ASHRAETau,                              ! Solar Model Indicator
  ,                                       ! Beam Solar Day Schedule Name
  ,                                       ! Diffuse Solar Day Schedule Name
  0.366,                                  ! ASHRAE Taub {dimensionless}
  2.392;                                  ! ASHRAE Taud {dimensionless}

OS:ComponentData,
  {751a9a97-f269-4d12-96d5-01e1538d60c8}, ! Handle
  Component Data 1,                       ! Name
  {a644c48f-5ba4-41a8-aa55-5c7abb96d3b3}, ! UUID
  {749e5953-bef8-4a97-86b4-dd22c232d4c9}, ! Version UUID
  1366305431,                             ! Creation Timestamp
  1366305431,                             ! Version Timestamp
  {6dec7a32-9469-48de-8e3e-e4302bead7ab}; ! Name of Object 1

