
OS:Version,
  {ec5bdf0f-5872-4fa2-b504-5eb5c07628fa}, ! Handle
  0.9.3;                                  ! Version Identifier

OS:SizingPeriod:DesignDay,
  {5a3bc34e-e5b5-4a25-b5c8-4db5e4f330a0}, ! Handle
  Moline Quad City Intl Ap Ann Clg 2% Condns WB=>MDB, ! Name
  29.1,                                   ! Maximum Dry-Bulb Temperature {C}
  11.1,                                   ! Daily Dry-Bulb Temperature Range {deltaC}
  24.3,                                   ! Humidity Indicating Conditions at Maximum Dry-Bulb {BasedOnField A3}
  99181,                                  ! Barometric Pressure {Pa}
  4.9,                                    ! Wind Speed {m/s}
  210,                                    ! Wind Direction {deg}
  0,                                      ! Sky Clearness
  0,                                      ! Rain Indicator
  0,                                      ! Snow Indicator
  21,                                     ! Day of Month
  7,                                      ! Month
  SummerDesignDay,                        ! Day Type
  0,                                      ! Daylight Saving Time Indicator
  Wetbulb,                                ! Humidity Indicating Type
  ,                                       ! Humidity Indicating Day Schedule Name
  DefaultMultipliers,                     ! Dry-Bulb Temperature Range Modifier Type
  ,                                       ! Dry-Bulb Temperature Range Modifier Schedule Name
  ASHRAETau,                              ! Solar Model Indicator
  ,                                       ! Beam Solar Day Schedule Name
  ,                                       ! Diffuse Solar Day Schedule Name
  0.449,                                  ! ASHRAE Taub {dimensionless}
  2.068;                                  ! ASHRAE Taud {dimensionless}

OS:ComponentData,
  {1fed2d72-5490-4820-8299-cc35d58f83ab}, ! Handle
  Component Data 1,                       ! Name
  {53164221-44d5-4cac-8e29-25d10f53269c}, ! UUID
  {ae6cbe3d-c9b2-4157-9f3f-2dea95f17c02}, ! Version UUID
  1366307369,                             ! Creation Timestamp
  1366307369,                             ! Version Timestamp
  {5a3bc34e-e5b5-4a25-b5c8-4db5e4f330a0}; ! Name of Object 1

