
OS:Version,
  {66ca7ea1-2967-4262-809c-6fccd3081356}, ! Handle
  0.9.3;                                  ! Version Identifier

OS:SizingPeriod:DesignDay,
  {0779682d-1188-45ca-bf03-75511bc88435}, ! Handle
  Watertown Municipal Ap Ann Clg 2% Condns DP=>MDB, ! Name
  25.3,                                   ! Maximum Dry-Bulb Temperature {C}
  11.8,                                   ! Daily Dry-Bulb Temperature Range {deltaC}
  20.4,                                   ! Humidity Indicating Conditions at Maximum Dry-Bulb {BasedOnField A3}
  95095,                                  ! Barometric Pressure {Pa}
  6.4,                                    ! Wind Speed {m/s}
  180,                                    ! Wind Direction {deg}
  0,                                      ! Sky Clearness
  0,                                      ! Rain Indicator
  0,                                      ! Snow Indicator
  21,                                     ! Day of Month
  7,                                      ! Month
  SummerDesignDay,                        ! Day Type
  0,                                      ! Daylight Saving Time Indicator
  Dewpoint,                               ! Humidity Indicating Type
  ,                                       ! Humidity Indicating Day Schedule Name
  DefaultMultipliers,                     ! Dry-Bulb Temperature Range Modifier Type
  ,                                       ! Dry-Bulb Temperature Range Modifier Schedule Name
  ASHRAETau,                              ! Solar Model Indicator
  ,                                       ! Beam Solar Day Schedule Name
  ,                                       ! Diffuse Solar Day Schedule Name
  0.389,                                  ! ASHRAE Taub {dimensionless}
  2.276;                                  ! ASHRAE Taud {dimensionless}

OS:ComponentData,
  {e5c5e9c5-eb17-47e8-9091-990d7f96c6fa}, ! Handle
  Component Data 1,                       ! Name
  {1329712a-415b-473f-80aa-a79190889588}, ! UUID
  {bb95159e-a4a6-4028-bb5d-40ab31ffefc1}, ! Version UUID
  1366310469,                             ! Creation Timestamp
  1366310469,                             ! Version Timestamp
  {0779682d-1188-45ca-bf03-75511bc88435}; ! Name of Object 1

