
OS:Version,
  {4936d20b-70be-498c-b76c-9e55be6c4926}, ! Handle
  0.9.3;                                  ! Version Identifier

OS:SizingPeriod:DesignDay,
  {86c034f3-98f6-4952-91c9-f41e1634596a}, ! Handle
  Travis Field Afb Ann Clg 2% Condns DB=>MWB, ! Name
  32.8,                                   ! Maximum Dry-Bulb Temperature {C}
  16.4,                                   ! Daily Dry-Bulb Temperature Range {deltaC}
  18.7,                                   ! Humidity Indicating Conditions at Maximum Dry-Bulb {BasedOnField A3}
  101109,                                 ! Barometric Pressure {Pa}
  4.2,                                    ! Wind Speed {m/s}
  240,                                    ! Wind Direction {deg}
  0,                                      ! Sky Clearness
  0,                                      ! Rain Indicator
  0,                                      ! Snow Indicator
  21,                                     ! Day of Month
  7,                                      ! Month
  SummerDesignDay,                        ! Day Type
  0,                                      ! Daylight Saving Time Indicator
  Wetbulb,                                ! Humidity Indicating Type
  ,                                       ! Humidity Indicating Day Schedule Name
  DefaultMultipliers,                     ! Dry-Bulb Temperature Range Modifier Type
  ,                                       ! Dry-Bulb Temperature Range Modifier Schedule Name
  ASHRAETau,                              ! Solar Model Indicator
  ,                                       ! Beam Solar Day Schedule Name
  ,                                       ! Diffuse Solar Day Schedule Name
  0.374,                                  ! ASHRAE Taub {dimensionless}
  2.389;                                  ! ASHRAE Taud {dimensionless}

OS:ComponentData,
  {cafbfc88-d858-4148-aa25-cae9c8de565a}, ! Handle
  Component Data 1,                       ! Name
  {222bee60-4ab1-41de-9abf-412ee3a311e5}, ! UUID
  {fb93deda-86c8-4432-b611-acfaf710c06f}, ! Version UUID
  1366306427,                             ! Creation Timestamp
  1366306427,                             ! Version Timestamp
  {86c034f3-98f6-4952-91c9-f41e1634596a}; ! Name of Object 1

