
OS:Version,
  {853c5892-0882-405d-8a2e-49a36a7180bd}, ! Handle
  0.9.3;                                  ! Version Identifier

OS:SizingPeriod:DesignDay,
  {da832b8a-9882-4197-8ae7-490bc56e0554}, ! Handle
  St Louis Spirit Of St Louis A Ann Htg 99.6% Condns DB, ! Name
  -15,                                    ! Maximum Dry-Bulb Temperature {C}
  0,                                      ! Daily Dry-Bulb Temperature Range {deltaC}
  -15,                                    ! Humidity Indicating Conditions at Maximum Dry-Bulb {BasedOnField A3}
  99643,                                  ! Barometric Pressure {Pa}
  3.4,                                    ! Wind Speed {m/s}
  290,                                    ! Wind Direction {deg}
  0,                                      ! Sky Clearness
  0,                                      ! Rain Indicator
  0,                                      ! Snow Indicator
  21,                                     ! Day of Month
  1,                                      ! Month
  WinterDesignDay,                        ! Day Type
  0,                                      ! Daylight Saving Time Indicator
  Wetbulb,                                ! Humidity Indicating Type
  ,                                       ! Humidity Indicating Day Schedule Name
  DefaultMultipliers,                     ! Dry-Bulb Temperature Range Modifier Type
  ,                                       ! Dry-Bulb Temperature Range Modifier Schedule Name
  ASHRAEClearSky;                         ! Solar Model Indicator

OS:ComponentData,
  {31cada1a-47a9-4156-ad2e-55355889935b}, ! Handle
  Component Data 1,                       ! Name
  {c8a45483-d342-4610-958f-cf8483eafd88}, ! UUID
  {3a913f9f-bb95-44ea-ab41-840136a438fd}, ! Version UUID
  1366308588,                             ! Creation Timestamp
  1366308588,                             ! Version Timestamp
  {da832b8a-9882-4197-8ae7-490bc56e0554}; ! Name of Object 1

