
OS:Version,
  {a13ddb20-50f0-42c8-ad0c-98309cd04fa3}, ! Handle
  0.9.3;                                  ! Version Identifier

OS:SizingPeriod:DesignDay,
  {445204fa-487a-4321-90db-b21aee13e369}, ! Handle
  Minot Faa Ap Ann Hum_n 99.6% Condns DP=>MCDB, ! Name
  -28.3,                                  ! Maximum Dry-Bulb Temperature {C}
  0,                                      ! Daily Dry-Bulb Temperature Range {deltaC}
  -33.4,                                  ! Humidity Indicating Conditions at Maximum Dry-Bulb {BasedOnField A3}
  95198,                                  ! Barometric Pressure {Pa}
  5.4,                                    ! Wind Speed {m/s}
  280,                                    ! Wind Direction {deg}
  0,                                      ! Sky Clearness
  0,                                      ! Rain Indicator
  0,                                      ! Snow Indicator
  21,                                     ! Day of Month
  1,                                      ! Month
  WinterDesignDay,                        ! Day Type
  0,                                      ! Daylight Saving Time Indicator
  Dewpoint,                               ! Humidity Indicating Type
  ,                                       ! Humidity Indicating Day Schedule Name
  DefaultMultipliers,                     ! Dry-Bulb Temperature Range Modifier Type
  ,                                       ! Dry-Bulb Temperature Range Modifier Schedule Name
  ASHRAEClearSky;                         ! Solar Model Indicator

OS:ComponentData,
  {cf6acb4f-753d-4d90-950c-4842894f3189}, ! Handle
  Component Data 1,                       ! Name
  {f622bd78-3c1a-4e64-bb08-f76390766d5d}, ! UUID
  {ca79c124-43b2-4125-baa2-bb3cc7d73260}, ! Version UUID
  1366309067,                             ! Creation Timestamp
  1366309067,                             ! Version Timestamp
  {445204fa-487a-4321-90db-b21aee13e369}; ! Name of Object 1

