
OS:Version,
  {63f4e8a0-ec73-4dab-a27c-21c50c1c5044}, ! Handle
  0.9.3;                                  ! Version Identifier

OS:SizingPeriod:DesignDay,
  {4b66972b-71de-4052-bc70-b4f3780ffa26}, ! Handle
  Niagara Falls Af Ann Htg Wind 99% Condns WS=>MCDB, ! Name
  -4.3,                                   ! Maximum Dry-Bulb Temperature {C}
  0,                                      ! Daily Dry-Bulb Temperature Range {deltaC}
  -4.3,                                   ! Humidity Indicating Conditions at Maximum Dry-Bulb {BasedOnField A3}
  99181,                                  ! Barometric Pressure {Pa}
  12.9,                                   ! Wind Speed {m/s}
  250,                                    ! Wind Direction {deg}
  0,                                      ! Sky Clearness
  0,                                      ! Rain Indicator
  0,                                      ! Snow Indicator
  21,                                     ! Day of Month
  1,                                      ! Month
  WinterDesignDay,                        ! Day Type
  0,                                      ! Daylight Saving Time Indicator
  Wetbulb,                                ! Humidity Indicating Type
  ,                                       ! Humidity Indicating Day Schedule Name
  DefaultMultipliers,                     ! Dry-Bulb Temperature Range Modifier Type
  ,                                       ! Dry-Bulb Temperature Range Modifier Schedule Name
  ASHRAEClearSky;                         ! Solar Model Indicator

OS:ComponentData,
  {fbdb89a5-2c00-416e-9671-cf0baa9e5748}, ! Handle
  Component Data 1,                       ! Name
  {4f31fbbc-a102-44d4-b48e-2d5ab7e762a3}, ! UUID
  {6044e89f-1bd0-4f19-a124-e9700d6e1d1d}, ! Version UUID
  1366309698,                             ! Creation Timestamp
  1366309698,                             ! Version Timestamp
  {4b66972b-71de-4052-bc70-b4f3780ffa26}; ! Name of Object 1

