
OS:Version,
  {df6cbd5d-f5a7-45e6-88e3-585762eda79c}, ! Handle
  0.9.3;                                  ! Version Identifier

OS:SizingPeriod:DesignDay,
  {5ffde5f4-f7d3-4fbf-943c-9eeb1f83f101}, ! Handle
  MERIDIAN Ann Clg .4% Condns WB=>MDB,    ! Name
  32,                                     ! Maximum Dry-Bulb Temperature {C}
  11.4,                                   ! Daily Dry-Bulb Temperature Range {deltaC}
  26.5,                                   ! Humidity Indicating Conditions at Maximum Dry-Bulb {BasedOnField A3}
  100201,                                 ! Barometric Pressure {Pa}
  3.2,                                    ! Wind Speed {m/s}
  0,                                      ! Wind Direction {deg}
  0,                                      ! Sky Clearness
  0,                                      ! Rain Indicator
  0,                                      ! Snow Indicator
  21,                                     ! Day of Month
  7,                                      ! Month
  SummerDesignDay,                        ! Day Type
  0,                                      ! Daylight Saving Time Indicator
  Wetbulb,                                ! Humidity Indicating Type
  ,                                       ! Humidity Indicating Day Schedule Name
  DefaultMultipliers,                     ! Dry-Bulb Temperature Range Modifier Type
  ,                                       ! Dry-Bulb Temperature Range Modifier Schedule Name
  ASHRAETau,                              ! Solar Model Indicator
  ,                                       ! Beam Solar Day Schedule Name
  ,                                       ! Diffuse Solar Day Schedule Name
  0.552,                                  ! ASHRAE Taub {dimensionless}
  1.818;                                  ! ASHRAE Taud {dimensionless}

OS:ComponentData,
  {c5a82022-1ce9-4cac-8166-000ccca189a7}, ! Handle
  Component Data 1,                       ! Name
  {c7f2010c-592f-4805-9c2e-67b40c6291b1}, ! UUID
  {4d136527-d8b7-4719-9205-280e588e6976}, ! Version UUID
  1366308673,                             ! Creation Timestamp
  1366308673,                             ! Version Timestamp
  {5ffde5f4-f7d3-4fbf-943c-9eeb1f83f101}; ! Name of Object 1

