
OS:Version,
  {aae6c4ad-6170-4c27-8dde-c5baf36e47ab}, ! Handle
  0.9.3;                                  ! Version Identifier

OS:SizingPeriod:DesignDay,
  {16f51b31-09ae-4ae5-b7e0-6d3af1176b80}, ! Handle
  WILKES-BARRE Ann Hum_n 99.6% Condns DP=>MCDB, ! Name
  -14.6,                                  ! Maximum Dry-Bulb Temperature {C}
  0,                                      ! Daily Dry-Bulb Temperature Range {deltaC}
  -22.1,                                  ! Humidity Indicating Conditions at Maximum Dry-Bulb {BasedOnField A3}
  97901,                                  ! Barometric Pressure {Pa}
  3.7,                                    ! Wind Speed {m/s}
  240,                                    ! Wind Direction {deg}
  0,                                      ! Sky Clearness
  0,                                      ! Rain Indicator
  0,                                      ! Snow Indicator
  21,                                     ! Day of Month
  1,                                      ! Month
  WinterDesignDay,                        ! Day Type
  0,                                      ! Daylight Saving Time Indicator
  Dewpoint,                               ! Humidity Indicating Type
  ,                                       ! Humidity Indicating Day Schedule Name
  DefaultMultipliers,                     ! Dry-Bulb Temperature Range Modifier Type
  ,                                       ! Dry-Bulb Temperature Range Modifier Schedule Name
  ASHRAEClearSky;                         ! Solar Model Indicator

OS:ComponentData,
  {5c0f798e-fa61-499e-adaa-b1cd3bb83f0a}, ! Handle
  Component Data 1,                       ! Name
  {7bc437c4-3a06-45a4-8223-ebad5a838365}, ! UUID
  {cd66018b-f8c6-4f5c-9c5c-2a61ad03493f}, ! Version UUID
  1366310269,                             ! Creation Timestamp
  1366310269,                             ! Version Timestamp
  {16f51b31-09ae-4ae5-b7e0-6d3af1176b80}; ! Name of Object 1

