
OS:Version,
  {68b81369-94d3-4390-9909-5d9545a8ee12}, ! Handle
  0.9.3;                                  ! Version Identifier

OS:SizingPeriod:DesignDay,
  {671d5192-eff8-49dd-975e-9b2598af4713}, ! Handle
  Tonopah Airport Ann Htg 99% Condns DB,  ! Name
  -10,                                    ! Maximum Dry-Bulb Temperature {C}
  0,                                      ! Daily Dry-Bulb Temperature Range {deltaC}
  -10,                                    ! Humidity Indicating Conditions at Maximum Dry-Bulb {BasedOnField A3}
  82960,                                  ! Barometric Pressure {Pa}
  3.9,                                    ! Wind Speed {m/s}
  350,                                    ! Wind Direction {deg}
  0,                                      ! Sky Clearness
  0,                                      ! Rain Indicator
  0,                                      ! Snow Indicator
  21,                                     ! Day of Month
  12,                                     ! Month
  WinterDesignDay,                        ! Day Type
  0,                                      ! Daylight Saving Time Indicator
  Wetbulb,                                ! Humidity Indicating Type
  ,                                       ! Humidity Indicating Day Schedule Name
  DefaultMultipliers,                     ! Dry-Bulb Temperature Range Modifier Type
  ,                                       ! Dry-Bulb Temperature Range Modifier Schedule Name
  ASHRAEClearSky;                         ! Solar Model Indicator

OS:ComponentData,
  {02c6037e-1757-44da-be12-679f2d05b99f}, ! Handle
  Component Data 1,                       ! Name
  {76e5c0b4-2969-4a0a-8664-af1733aea60f}, ! UUID
  {f624ebf5-bba7-460c-b7cd-f0640cd0092a}, ! Version UUID
  1366309553,                             ! Creation Timestamp
  1366309553,                             ! Version Timestamp
  {671d5192-eff8-49dd-975e-9b2598af4713}; ! Name of Object 1

