
OS:Version,
  {11a844dc-c39a-47bb-9143-40e3d2f5bfcc}, ! Handle
  0.9.3;                                  ! Version Identifier

OS:SizingPeriod:DesignDay,
  {e70b3344-fd5f-4319-95c8-6a72623a281a}, ! Handle
  Tacoma Narrows Ann Clg 2% Condns DP=>MDB, ! Name
  18.8,                                   ! Maximum Dry-Bulb Temperature {C}
  10.7,                                   ! Daily Dry-Bulb Temperature Range {deltaC}
  14.1,                                   ! Humidity Indicating Conditions at Maximum Dry-Bulb {BasedOnField A3}
  100237,                                 ! Barometric Pressure {Pa}
  3.5,                                    ! Wind Speed {m/s}
  10,                                     ! Wind Direction {deg}
  0,                                      ! Sky Clearness
  0,                                      ! Rain Indicator
  0,                                      ! Snow Indicator
  21,                                     ! Day of Month
  7,                                      ! Month
  SummerDesignDay,                        ! Day Type
  0,                                      ! Daylight Saving Time Indicator
  Dewpoint,                               ! Humidity Indicating Type
  ,                                       ! Humidity Indicating Day Schedule Name
  DefaultMultipliers,                     ! Dry-Bulb Temperature Range Modifier Type
  ,                                       ! Dry-Bulb Temperature Range Modifier Schedule Name
  ASHRAETau,                              ! Solar Model Indicator
  ,                                       ! Beam Solar Day Schedule Name
  ,                                       ! Diffuse Solar Day Schedule Name
  0.36,                                   ! ASHRAE Taub {dimensionless}
  2.5;                                    ! ASHRAE Taud {dimensionless}

OS:ComponentData,
  {1554bb03-c6ca-4a80-9a89-7c74828cbd23}, ! Handle
  Component Data 1,                       ! Name
  {7f025762-3091-45e5-8a46-4471c6f69c6f}, ! UUID
  {1b0eab94-a721-407e-aa21-9aa8b0e2e276}, ! Version UUID
  1366311413,                             ! Creation Timestamp
  1366311413,                             ! Version Timestamp
  {e70b3344-fd5f-4319-95c8-6a72623a281a}; ! Name of Object 1

