
OS:Version,
  {67d88700-69ee-4515-87c2-e9b39d9ff797}, ! Handle
  0.9.3;                                  ! Version Identifier

OS:SizingPeriod:DesignDay,
  {4bc4fdaa-be73-49d7-a13f-285d22c9715f}, ! Handle
  SHERIDAN Ann Htg 99% Condns DB,         ! Name
  -21.1,                                  ! Maximum Dry-Bulb Temperature {C}
  0,                                      ! Daily Dry-Bulb Temperature Range {deltaC}
  -21.1,                                  ! Humidity Indicating Conditions at Maximum Dry-Bulb {BasedOnField A3}
  87619,                                  ! Barometric Pressure {Pa}
  2,                                      ! Wind Speed {m/s}
  280,                                    ! Wind Direction {deg}
  0,                                      ! Sky Clearness
  0,                                      ! Rain Indicator
  0,                                      ! Snow Indicator
  21,                                     ! Day of Month
  12,                                     ! Month
  WinterDesignDay,                        ! Day Type
  0,                                      ! Daylight Saving Time Indicator
  Wetbulb,                                ! Humidity Indicating Type
  ,                                       ! Humidity Indicating Day Schedule Name
  DefaultMultipliers,                     ! Dry-Bulb Temperature Range Modifier Type
  ,                                       ! Dry-Bulb Temperature Range Modifier Schedule Name
  ASHRAEClearSky;                         ! Solar Model Indicator

OS:ComponentData,
  {fa78930f-d59d-49bf-a9c6-0425a7220c49}, ! Handle
  Component Data 1,                       ! Name
  {fa984e93-d1ad-4924-903d-336e2993490e}, ! UUID
  {a0d34a5c-6a8e-4aee-9bb4-ae02efde62f3}, ! Version UUID
  1366311774,                             ! Creation Timestamp
  1366311774,                             ! Version Timestamp
  {4bc4fdaa-be73-49d7-a13f-285d22c9715f}; ! Name of Object 1

