
OS:Version,
  {7d0dbe79-f04d-449f-a959-d2f79f2d7c2c}, ! Handle
  0.9.3;                                  ! Version Identifier

OS:SizingPeriod:DesignDay,
  {247e0b71-a858-4589-98a5-a87a4a4e4a41}, ! Handle
  Red Wing Ann Clg 2% Condns DB=>MWB,     ! Name
  29,                                     ! Maximum Dry-Bulb Temperature {C}
  11.2,                                   ! Daily Dry-Bulb Temperature Range {deltaC}
  21.4,                                   ! Humidity Indicating Conditions at Maximum Dry-Bulb {BasedOnField A3}
  98487,                                  ! Barometric Pressure {Pa}
  4.4,                                    ! Wind Speed {m/s}
  190,                                    ! Wind Direction {deg}
  0,                                      ! Sky Clearness
  0,                                      ! Rain Indicator
  0,                                      ! Snow Indicator
  21,                                     ! Day of Month
  7,                                      ! Month
  SummerDesignDay,                        ! Day Type
  0,                                      ! Daylight Saving Time Indicator
  Wetbulb,                                ! Humidity Indicating Type
  ,                                       ! Humidity Indicating Day Schedule Name
  DefaultMultipliers,                     ! Dry-Bulb Temperature Range Modifier Type
  ,                                       ! Dry-Bulb Temperature Range Modifier Schedule Name
  ASHRAETau,                              ! Solar Model Indicator
  ,                                       ! Beam Solar Day Schedule Name
  ,                                       ! Diffuse Solar Day Schedule Name
  0.413,                                  ! ASHRAE Taub {dimensionless}
  2.205;                                  ! ASHRAE Taud {dimensionless}

OS:ComponentData,
  {332960e5-7271-4155-82b0-f4e935321f8f}, ! Handle
  Component Data 1,                       ! Name
  {1ac443a2-7345-4c42-b810-8e8d02fe29f3}, ! UUID
  {b9cafb2a-6f75-4ec7-88d6-5a4038696a47}, ! Version UUID
  1366308375,                             ! Creation Timestamp
  1366308375,                             ! Version Timestamp
  {247e0b71-a858-4589-98a5-a87a4a4e4a41}; ! Name of Object 1

