
OS:Version,
  {2ab738bb-f256-4d0c-9b8f-4044c55caebf}, ! Handle
  0.9.3;                                  ! Version Identifier

OS:SizingPeriod:DesignDay,
  {5fd1e938-f01a-4218-a3cf-b4185a197a92}, ! Handle
  Medford Ann Hum_n 99.6% Condns DP=>MCDB, ! Name
  1.4,                                    ! Maximum Dry-Bulb Temperature {C}
  0,                                      ! Daily Dry-Bulb Temperature Range {deltaC}
  -8.4,                                   ! Humidity Indicating Conditions at Maximum Dry-Bulb {BasedOnField A3}
  96553,                                  ! Barometric Pressure {Pa}
  1,                                      ! Wind Speed {m/s}
  120,                                    ! Wind Direction {deg}
  0,                                      ! Sky Clearness
  0,                                      ! Rain Indicator
  0,                                      ! Snow Indicator
  21,                                     ! Day of Month
  12,                                     ! Month
  WinterDesignDay,                        ! Day Type
  0,                                      ! Daylight Saving Time Indicator
  Dewpoint,                               ! Humidity Indicating Type
  ,                                       ! Humidity Indicating Day Schedule Name
  DefaultMultipliers,                     ! Dry-Bulb Temperature Range Modifier Type
  ,                                       ! Dry-Bulb Temperature Range Modifier Schedule Name
  ASHRAEClearSky;                         ! Solar Model Indicator

OS:ComponentData,
  {026db62b-27dc-4c76-8f5d-be32a7abf583}, ! Handle
  Component Data 1,                       ! Name
  {72789bc1-51f5-4756-8646-bbc6becacea7}, ! UUID
  {61cb4375-ad3e-47a6-8fdb-7d34410dea92}, ! Version UUID
  1366310030,                             ! Creation Timestamp
  1366310030,                             ! Version Timestamp
  {5fd1e938-f01a-4218-a3cf-b4185a197a92}; ! Name of Object 1

