
OS:Version,
  {3d18df6a-a16e-47eb-80ad-895bec3086b9}, ! Handle
  0.9.3;                                  ! Version Identifier

OS:SizingPeriod:DesignDay,
  {c79178bd-536a-40cc-9a65-ab4a9458fbd3}, ! Handle
  Mount Washington Ann Hum_n 99.6% Condns DP=>MCDB, ! Name
  -20.7,                                  ! Maximum Dry-Bulb Temperature {C}
  0,                                      ! Daily Dry-Bulb Temperature Range {deltaC}
  -37.5,                                  ! Humidity Indicating Conditions at Maximum Dry-Bulb {BasedOnField A3}
  80387,                                  ! Barometric Pressure {Pa}
  31.1,                                   ! Wind Speed {m/s}
  300,                                    ! Wind Direction {deg}
  0,                                      ! Sky Clearness
  0,                                      ! Rain Indicator
  0,                                      ! Snow Indicator
  21,                                     ! Day of Month
  1,                                      ! Month
  WinterDesignDay,                        ! Day Type
  0,                                      ! Daylight Saving Time Indicator
  Dewpoint,                               ! Humidity Indicating Type
  ,                                       ! Humidity Indicating Day Schedule Name
  DefaultMultipliers,                     ! Dry-Bulb Temperature Range Modifier Type
  ,                                       ! Dry-Bulb Temperature Range Modifier Schedule Name
  ASHRAEClearSky;                         ! Solar Model Indicator

OS:ComponentData,
  {8202717f-3e8d-45d5-870b-a4ede2d7be8b}, ! Handle
  Component Data 1,                       ! Name
  {5285c66f-87ec-48d7-81d2-d04ae35b606c}, ! UUID
  {d54fa09f-317f-46cc-9973-e4d758a48ba1}, ! Version UUID
  1366309269,                             ! Creation Timestamp
  1366309269,                             ! Version Timestamp
  {c79178bd-536a-40cc-9a65-ab4a9458fbd3}; ! Name of Object 1

