
OS:Version,
  {72e36101-4a69-40d4-805f-61c7b9d6c389}, ! Handle
  0.9.3;                                  ! Version Identifier

OS:SizingPeriod:DesignDay,
  {053b643e-cdb3-438b-8b83-4643a2247553}, ! Handle
  Missoula Ann Clg .4% Condns DB=>MWB,    ! Name
  33.6,                                   ! Maximum Dry-Bulb Temperature {C}
  17.5,                                   ! Daily Dry-Bulb Temperature Range {deltaC}
  16.9,                                   ! Humidity Indicating Conditions at Maximum Dry-Bulb {BasedOnField A3}
  90180,                                  ! Barometric Pressure {Pa}
  4.4,                                    ! Wind Speed {m/s}
  320,                                    ! Wind Direction {deg}
  0,                                      ! Sky Clearness
  0,                                      ! Rain Indicator
  0,                                      ! Snow Indicator
  21,                                     ! Day of Month
  7,                                      ! Month
  SummerDesignDay,                        ! Day Type
  0,                                      ! Daylight Saving Time Indicator
  Wetbulb,                                ! Humidity Indicating Type
  ,                                       ! Humidity Indicating Day Schedule Name
  DefaultMultipliers,                     ! Dry-Bulb Temperature Range Modifier Type
  ,                                       ! Dry-Bulb Temperature Range Modifier Schedule Name
  ASHRAETau,                              ! Solar Model Indicator
  ,                                       ! Beam Solar Day Schedule Name
  ,                                       ! Diffuse Solar Day Schedule Name
  0.357,                                  ! ASHRAE Taub {dimensionless}
  2.409;                                  ! ASHRAE Taud {dimensionless}

OS:ComponentData,
  {d070b20f-eada-4732-9e7d-c8fe34b4bf9b}, ! Handle
  Component Data 1,                       ! Name
  {974121bf-93dc-43bf-96c6-b701eb57fd0b}, ! UUID
  {13f6dc72-9ddf-4a82-8788-783143d8039d}, ! Version UUID
  1366308845,                             ! Creation Timestamp
  1366308845,                             ! Version Timestamp
  {053b643e-cdb3-438b-8b83-4643a2247553}; ! Name of Object 1

