
OS:Version,
  {43973cf4-60dd-4926-a8b2-008c4b266bb8}, ! Handle
  0.9.3;                                  ! Version Identifier

OS:SizingPeriod:DesignDay,
  {bf100ae5-4406-4105-b314-f194d65836f0}, ! Handle
  Meridian Naas Ann Clg 2% Condns Enth=>MDB, ! Name
  31.9,                                   ! Maximum Dry-Bulb Temperature {C}
  11.7,                                   ! Daily Dry-Bulb Temperature Range {deltaC}
  78900,                                  ! Humidity Indicating Conditions at Maximum Dry-Bulb {BasedOnField A3}
  100332,                                 ! Barometric Pressure {Pa}
  2,                                      ! Wind Speed {m/s}
  270,                                    ! Wind Direction {deg}
  0,                                      ! Sky Clearness
  0,                                      ! Rain Indicator
  0,                                      ! Snow Indicator
  21,                                     ! Day of Month
  7,                                      ! Month
  SummerDesignDay,                        ! Day Type
  0,                                      ! Daylight Saving Time Indicator
  Enthalpy,                               ! Humidity Indicating Type
  ,                                       ! Humidity Indicating Day Schedule Name
  DefaultMultipliers,                     ! Dry-Bulb Temperature Range Modifier Type
  ,                                       ! Dry-Bulb Temperature Range Modifier Schedule Name
  ASHRAETau,                              ! Solar Model Indicator
  ,                                       ! Beam Solar Day Schedule Name
  ,                                       ! Diffuse Solar Day Schedule Name
  0.555,                                  ! ASHRAE Taub {dimensionless}
  1.808;                                  ! ASHRAE Taud {dimensionless}

OS:ComponentData,
  {edb6ea2e-5031-40a4-994c-97c7a8a7265b}, ! Handle
  Component Data 1,                       ! Name
  {f6e26c4c-c9bb-44ea-87e3-5ae371fb72c0}, ! UUID
  {56052c2a-b72e-48d3-8a3e-074465ae8c83}, ! Version UUID
  1366308681,                             ! Creation Timestamp
  1366308681,                             ! Version Timestamp
  {bf100ae5-4406-4105-b314-f194d65836f0}; ! Name of Object 1

