
OS:Version,
  {35783bed-3999-4ed8-bd1f-934c8b596290}, ! Handle
  0.9.3;                                  ! Version Identifier

OS:SizingPeriod:DesignDay,
  {fdc7af7c-a82e-4b6f-bcc7-81e202f2fa0c}, ! Handle
  VICTORIA Ann Clg 1% Condns DB=>MWB,     ! Name
  34.9,                                   ! Maximum Dry-Bulb Temperature {C}
  10.6,                                   ! Daily Dry-Bulb Temperature Range {deltaC}
  24.8,                                   ! Humidity Indicating Conditions at Maximum Dry-Bulb {BasedOnField A3}
  100941,                                 ! Barometric Pressure {Pa}
  4.9,                                    ! Wind Speed {m/s}
  170,                                    ! Wind Direction {deg}
  0,                                      ! Sky Clearness
  0,                                      ! Rain Indicator
  0,                                      ! Snow Indicator
  21,                                     ! Day of Month
  8,                                      ! Month
  SummerDesignDay,                        ! Day Type
  0,                                      ! Daylight Saving Time Indicator
  Wetbulb,                                ! Humidity Indicating Type
  ,                                       ! Humidity Indicating Day Schedule Name
  DefaultMultipliers,                     ! Dry-Bulb Temperature Range Modifier Type
  ,                                       ! Dry-Bulb Temperature Range Modifier Schedule Name
  ASHRAETau,                              ! Solar Model Indicator
  ,                                       ! Beam Solar Day Schedule Name
  ,                                       ! Diffuse Solar Day Schedule Name
  0.474,                                  ! ASHRAE Taub {dimensionless}
  2.062;                                  ! ASHRAE Taud {dimensionless}

OS:ComponentData,
  {f2c5e681-225f-4b36-b4bd-ef42ec6e25cb}, ! Handle
  Component Data 1,                       ! Name
  {beca0e05-bd1d-42b5-a653-a770829a0fcd}, ! UUID
  {2956f848-90eb-490a-8623-747e703bef7d}, ! Version UUID
  1366310908,                             ! Creation Timestamp
  1366310908,                             ! Version Timestamp
  {fdc7af7c-a82e-4b6f-bcc7-81e202f2fa0c}; ! Name of Object 1

