
OS:Version,
  {f227e87b-4d5b-4258-95af-07317c2aec37}, ! Handle
  0.9.3;                                  ! Version Identifier

OS:SizingPeriod:DesignDay,
  {3aea35a3-183d-46a7-bed8-4d7f6d067d09}, ! Handle
  Pine Bluff Faa Ap Ann Htg Wind 99.6% Condns WS=>MCDB, ! Name
  13.1,                                   ! Maximum Dry-Bulb Temperature {C}
  0,                                      ! Daily Dry-Bulb Temperature Range {deltaC}
  13.1,                                   ! Humidity Indicating Conditions at Maximum Dry-Bulb {BasedOnField A3}
  100570,                                 ! Barometric Pressure {Pa}
  9.2,                                    ! Wind Speed {m/s}
  20,                                     ! Wind Direction {deg}
  0,                                      ! Sky Clearness
  0,                                      ! Rain Indicator
  0,                                      ! Snow Indicator
  21,                                     ! Day of Month
  1,                                      ! Month
  WinterDesignDay,                        ! Day Type
  0,                                      ! Daylight Saving Time Indicator
  Wetbulb,                                ! Humidity Indicating Type
  ,                                       ! Humidity Indicating Day Schedule Name
  DefaultMultipliers,                     ! Dry-Bulb Temperature Range Modifier Type
  ,                                       ! Dry-Bulb Temperature Range Modifier Schedule Name
  ASHRAEClearSky;                         ! Solar Model Indicator

OS:ComponentData,
  {017c8ad2-4c01-4efe-849b-894632f6c754}, ! Handle
  Component Data 1,                       ! Name
  {cfb72177-ea37-42af-b90c-7f453191feaf}, ! UUID
  {0b77da41-1d20-4cc8-a494-608133501859}, ! Version UUID
  1366306240,                             ! Creation Timestamp
  1366306240,                             ! Version Timestamp
  {3aea35a3-183d-46a7-bed8-4d7f6d067d09}; ! Name of Object 1

