
OS:Version,
  {bbe03ffb-d777-4289-8d3e-13c3d16d5276}, ! Handle
  0.9.3;                                  ! Version Identifier

OS:SizingPeriod:DesignDay,
  {06c01273-9900-413d-9d79-75aabb7196ee}, ! Handle
  Nome Ann Htg 99.6% Condns DB,           ! Name
  -33.9,                                  ! Maximum Dry-Bulb Temperature {C}
  0,                                      ! Daily Dry-Bulb Temperature Range {deltaC}
  -33.9,                                  ! Humidity Indicating Conditions at Maximum Dry-Bulb {BasedOnField A3}
  101241,                                 ! Barometric Pressure {Pa}
  1.1,                                    ! Wind Speed {m/s}
  10,                                     ! Wind Direction {deg}
  0,                                      ! Sky Clearness
  0,                                      ! Rain Indicator
  0,                                      ! Snow Indicator
  21,                                     ! Day of Month
  1,                                      ! Month
  WinterDesignDay,                        ! Day Type
  0,                                      ! Daylight Saving Time Indicator
  Wetbulb,                                ! Humidity Indicating Type
  ,                                       ! Humidity Indicating Day Schedule Name
  DefaultMultipliers,                     ! Dry-Bulb Temperature Range Modifier Type
  ,                                       ! Dry-Bulb Temperature Range Modifier Schedule Name
  ASHRAEClearSky;                         ! Solar Model Indicator

OS:ComponentData,
  {734a0813-d27d-40d2-90fe-cb091116e141}, ! Handle
  Component Data 1,                       ! Name
  {b9c12586-393f-4287-910e-3df3aa810a72}, ! UUID
  {e8bd6d0c-b3cd-4e4d-9d64-bb5bfbd2d496}, ! Version UUID
  1366305451,                             ! Creation Timestamp
  1366305451,                             ! Version Timestamp
  {06c01273-9900-413d-9d79-75aabb7196ee}; ! Name of Object 1

