
OS:Version,
  {1d0b8cf6-c37d-4508-a17d-d4d0c642a848}, ! Handle
  0.9.3;                                  ! Version Identifier

OS:SizingPeriod:DesignDay,
  {e96bc3b3-17c5-4185-aed9-c12698790eb1}, ! Handle
  Pierre Municipal Ap Ann Clg 2% Condns WB=>MDB, ! Name
  30.2,                                   ! Maximum Dry-Bulb Temperature {C}
  14.3,                                   ! Daily Dry-Bulb Temperature Range {deltaC}
  22.1,                                   ! Humidity Indicating Conditions at Maximum Dry-Bulb {BasedOnField A3}
  95141,                                  ! Barometric Pressure {Pa}
  6.2,                                    ! Wind Speed {m/s}
  170,                                    ! Wind Direction {deg}
  0,                                      ! Sky Clearness
  0,                                      ! Rain Indicator
  0,                                      ! Snow Indicator
  21,                                     ! Day of Month
  7,                                      ! Month
  SummerDesignDay,                        ! Day Type
  0,                                      ! Daylight Saving Time Indicator
  Wetbulb,                                ! Humidity Indicating Type
  ,                                       ! Humidity Indicating Day Schedule Name
  DefaultMultipliers,                     ! Dry-Bulb Temperature Range Modifier Type
  ,                                       ! Dry-Bulb Temperature Range Modifier Schedule Name
  ASHRAETau,                              ! Solar Model Indicator
  ,                                       ! Beam Solar Day Schedule Name
  ,                                       ! Diffuse Solar Day Schedule Name
  0.427,                                  ! ASHRAE Taub {dimensionless}
  2.103;                                  ! ASHRAE Taud {dimensionless}

OS:ComponentData,
  {ca5e25d6-6285-41c2-9055-b3f2f8e5e949}, ! Handle
  Component Data 1,                       ! Name
  {ab2c93a5-023e-4159-866b-c981b318c43e}, ! UUID
  {6774c54f-9353-4710-8e51-73e9dfb57041}, ! Version UUID
  1366310436,                             ! Creation Timestamp
  1366310436,                             ! Version Timestamp
  {e96bc3b3-17c5-4185-aed9-c12698790eb1}; ! Name of Object 1

