
OS:Version,
  {06217956-f602-4168-bc15-ed8b6f6dd494}, ! Handle
  0.9.3;                                  ! Version Identifier

OS:SizingPeriod:DesignDay,
  {ce1b1ec6-5c07-4f50-8ff7-782eb5934267}, ! Handle
  Olympia Ann Clg 2% Condns WB=>MDB,      ! Name
  25.4,                                   ! Maximum Dry-Bulb Temperature {C}
  14.6,                                   ! Daily Dry-Bulb Temperature Range {deltaC}
  17.9,                                   ! Humidity Indicating Conditions at Maximum Dry-Bulb {BasedOnField A3}
  100594,                                 ! Barometric Pressure {Pa}
  3.4,                                    ! Wind Speed {m/s}
  20,                                     ! Wind Direction {deg}
  0,                                      ! Sky Clearness
  0,                                      ! Rain Indicator
  0,                                      ! Snow Indicator
  21,                                     ! Day of Month
  8,                                      ! Month
  SummerDesignDay,                        ! Day Type
  0,                                      ! Daylight Saving Time Indicator
  Wetbulb,                                ! Humidity Indicating Type
  ,                                       ! Humidity Indicating Day Schedule Name
  DefaultMultipliers,                     ! Dry-Bulb Temperature Range Modifier Type
  ,                                       ! Dry-Bulb Temperature Range Modifier Schedule Name
  ASHRAETau,                              ! Solar Model Indicator
  ,                                       ! Beam Solar Day Schedule Name
  ,                                       ! Diffuse Solar Day Schedule Name
  0.359,                                  ! ASHRAE Taub {dimensionless}
  2.536;                                  ! ASHRAE Taud {dimensionless}

OS:ComponentData,
  {3adea363-e815-48bd-8825-4fefafa22688}, ! Handle
  Component Data 1,                       ! Name
  {1e5574e3-cdeb-4a93-8c38-3b26992b6e8c}, ! UUID
  {e258e371-d7f9-4a95-9ac6-618bca74f19c}, ! Version UUID
  1366311310,                             ! Creation Timestamp
  1366311310,                             ! Version Timestamp
  {ce1b1ec6-5c07-4f50-8ff7-782eb5934267}; ! Name of Object 1

