
OS:Version,
  {98bf1685-acbf-4ab5-a773-a9d598ebdec1}, ! Handle
  0.9.3;                                  ! Version Identifier

OS:SizingPeriod:DesignDay,
  {9b8c579a-72fe-45f4-a462-dba706d29715}, ! Handle
  Moline/Davenport IA Ann Clg .4% Condns DB=>MWB, ! Name
  34.1,                                   ! Maximum Dry-Bulb Temperature {C}
  11.1,                                   ! Daily Dry-Bulb Temperature Range {deltaC}
  24.6,                                   ! Humidity Indicating Conditions at Maximum Dry-Bulb {BasedOnField A3}
  99169,                                  ! Barometric Pressure {Pa}
  4.9,                                    ! Wind Speed {m/s}
  210,                                    ! Wind Direction {deg}
  0,                                      ! Sky Clearness
  0,                                      ! Rain Indicator
  0,                                      ! Snow Indicator
  21,                                     ! Day of Month
  7,                                      ! Month
  SummerDesignDay,                        ! Day Type
  0,                                      ! Daylight Saving Time Indicator
  Wetbulb,                                ! Humidity Indicating Type
  ,                                       ! Humidity Indicating Day Schedule Name
  DefaultMultipliers,                     ! Dry-Bulb Temperature Range Modifier Type
  ,                                       ! Dry-Bulb Temperature Range Modifier Schedule Name
  ASHRAETau,                              ! Solar Model Indicator
  ,                                       ! Beam Solar Day Schedule Name
  ,                                       ! Diffuse Solar Day Schedule Name
  0.449,                                  ! ASHRAE Taub {dimensionless}
  2.068;                                  ! ASHRAE Taud {dimensionless}

OS:ComponentData,
  {dd42ac73-6612-473f-babd-5b9512ad593a}, ! Handle
  Component Data 1,                       ! Name
  {8dbf747a-c79b-4150-8534-676bd512f0ce}, ! UUID
  {0198cde4-0c8b-4347-9af7-2591d054ec1b}, ! Version UUID
  1366307363,                             ! Creation Timestamp
  1366307363,                             ! Version Timestamp
  {9b8c579a-72fe-45f4-a462-dba706d29715}; ! Name of Object 1

