
OS:Version,
  {bd6c68ed-24d5-4793-a9d8-a3325fea5c8d}, ! Handle
  0.9.3;                                  ! Version Identifier

OS:SizingPeriod:DesignDay,
  {c975ce58-c3c0-4fe9-bd8b-b446b08062ed}, ! Handle
  Springfield Ann Clg 1% Condns DB=>MWB,  ! Name
  33.4,                                   ! Maximum Dry-Bulb Temperature {C}
  11,                                     ! Daily Dry-Bulb Temperature Range {deltaC}
  23.6,                                   ! Humidity Indicating Conditions at Maximum Dry-Bulb {BasedOnField A3}
  96761,                                  ! Barometric Pressure {Pa}
  3.9,                                    ! Wind Speed {m/s}
  180,                                    ! Wind Direction {deg}
  0,                                      ! Sky Clearness
  0,                                      ! Rain Indicator
  0,                                      ! Snow Indicator
  21,                                     ! Day of Month
  7,                                      ! Month
  SummerDesignDay,                        ! Day Type
  0,                                      ! Daylight Saving Time Indicator
  Wetbulb,                                ! Humidity Indicating Type
  ,                                       ! Humidity Indicating Day Schedule Name
  DefaultMultipliers,                     ! Dry-Bulb Temperature Range Modifier Type
  ,                                       ! Dry-Bulb Temperature Range Modifier Schedule Name
  ASHRAETau,                              ! Solar Model Indicator
  ,                                       ! Beam Solar Day Schedule Name
  ,                                       ! Diffuse Solar Day Schedule Name
  0.448,                                  ! ASHRAE Taub {dimensionless}
  2.097;                                  ! ASHRAE Taud {dimensionless}

OS:ComponentData,
  {742b2070-adc5-4953-b9eb-069b5e7a5496}, ! Handle
  Component Data 1,                       ! Name
  {99c9dba6-4e28-4c34-942c-e7c9659e0a38}, ! UUID
  {8f19bb94-8997-4471-8bcb-edb65f3d2a7a}, ! Version UUID
  1366308565,                             ! Creation Timestamp
  1366308565,                             ! Version Timestamp
  {c975ce58-c3c0-4fe9-bd8b-b446b08062ed}; ! Name of Object 1

