
OS:Version,
  {2151b7c2-60ab-4823-8de1-c056f00f342f}, ! Handle
  0.9.3;                                  ! Version Identifier

OS:SizingPeriod:DesignDay,
  {d43d050d-ca04-4dbf-9def-cdd37cbabdbd}, ! Handle
  Worchester Regional Arpt Ann Clg .4% Condns DP=>MDB, ! Name
  25.6,                                   ! Maximum Dry-Bulb Temperature {C}
  9,                                      ! Daily Dry-Bulb Temperature Range {deltaC}
  22.1,                                   ! Humidity Indicating Conditions at Maximum Dry-Bulb {BasedOnField A3}
  97773,                                  ! Barometric Pressure {Pa}
  4.6,                                    ! Wind Speed {m/s}
  270,                                    ! Wind Direction {deg}
  0,                                      ! Sky Clearness
  0,                                      ! Rain Indicator
  0,                                      ! Snow Indicator
  21,                                     ! Day of Month
  7,                                      ! Month
  SummerDesignDay,                        ! Day Type
  0,                                      ! Daylight Saving Time Indicator
  Dewpoint,                               ! Humidity Indicating Type
  ,                                       ! Humidity Indicating Day Schedule Name
  DefaultMultipliers,                     ! Dry-Bulb Temperature Range Modifier Type
  ,                                       ! Dry-Bulb Temperature Range Modifier Schedule Name
  ASHRAETau,                              ! Solar Model Indicator
  ,                                       ! Beam Solar Day Schedule Name
  ,                                       ! Diffuse Solar Day Schedule Name
  0.454,                                  ! ASHRAE Taub {dimensionless}
  2.026;                                  ! ASHRAE Taud {dimensionless}

OS:ComponentData,
  {8deb9120-6d29-4242-b5b6-57402f0e52f8}, ! Handle
  Component Data 1,                       ! Name
  {6a4bd49c-ea44-4f1a-82c6-caf8aea9e66f}, ! UUID
  {b44b9ec6-ec2f-4bd5-afc7-3fd2fb0d8a20}, ! Version UUID
  1366307831,                             ! Creation Timestamp
  1366307831,                             ! Version Timestamp
  {d43d050d-ca04-4dbf-9def-cdd37cbabdbd}; ! Name of Object 1

