
OS:Version,
  {2f3238b2-810f-4d84-9a4f-4d65fea3afe9}, ! Handle
  0.9.3;                                  ! Version Identifier

OS:SizingPeriod:DesignDay,
  {e5e41a10-97cd-451e-a591-0ba8a3645d68}, ! Handle
  Mc Gregor  Awos Ann Clg 1% Condns DB=>MWB, ! Name
  37.1,                                   ! Maximum Dry-Bulb Temperature {C}
  12.2,                                   ! Daily Dry-Bulb Temperature Range {deltaC}
  23.8,                                   ! Humidity Indicating Conditions at Maximum Dry-Bulb {BasedOnField A3}
  99181,                                  ! Barometric Pressure {Pa}
  4.4,                                    ! Wind Speed {m/s}
  170,                                    ! Wind Direction {deg}
  0,                                      ! Sky Clearness
  0,                                      ! Rain Indicator
  0,                                      ! Snow Indicator
  21,                                     ! Day of Month
  7,                                      ! Month
  SummerDesignDay,                        ! Day Type
  0,                                      ! Daylight Saving Time Indicator
  Wetbulb,                                ! Humidity Indicating Type
  ,                                       ! Humidity Indicating Day Schedule Name
  DefaultMultipliers,                     ! Dry-Bulb Temperature Range Modifier Type
  ,                                       ! Dry-Bulb Temperature Range Modifier Schedule Name
  ASHRAETau,                              ! Solar Model Indicator
  ,                                       ! Beam Solar Day Schedule Name
  ,                                       ! Diffuse Solar Day Schedule Name
  0.456,                                  ! ASHRAE Taub {dimensionless}
  2.109;                                  ! ASHRAE Taud {dimensionless}

OS:ComponentData,
  {758002e4-e1f4-436d-9ae6-267bb3a4defe}, ! Handle
  Component Data 1,                       ! Name
  {ad39e656-f380-4f05-8ecb-60927b60ee80}, ! UUID
  {e4a950bc-d5d4-4167-aeca-b5f008b78f40}, ! Version UUID
  1366310823,                             ! Creation Timestamp
  1366310823,                             ! Version Timestamp
  {e5e41a10-97cd-451e-a591-0ba8a3645d68}; ! Name of Object 1

