
OS:Version,
  {23f54328-c298-45d5-83dd-52c8564bf210}, ! Handle
  0.9.3;                                  ! Version Identifier

OS:SizingPeriod:DesignDay,
  {a5e3ea47-00c8-4b65-8b8c-7307f456e975}, ! Handle
  Valentine Miller Field Ann Clg 2% Condns DP=>MDB, ! Name
  25,                                     ! Maximum Dry-Bulb Temperature {C}
  14.7,                                   ! Daily Dry-Bulb Temperature Range {deltaC}
  18.5,                                   ! Humidity Indicating Conditions at Maximum Dry-Bulb {BasedOnField A3}
  92199,                                  ! Barometric Pressure {Pa}
  6.5,                                    ! Wind Speed {m/s}
  170,                                    ! Wind Direction {deg}
  0,                                      ! Sky Clearness
  0,                                      ! Rain Indicator
  0,                                      ! Snow Indicator
  21,                                     ! Day of Month
  7,                                      ! Month
  SummerDesignDay,                        ! Day Type
  0,                                      ! Daylight Saving Time Indicator
  Dewpoint,                               ! Humidity Indicating Type
  ,                                       ! Humidity Indicating Day Schedule Name
  DefaultMultipliers,                     ! Dry-Bulb Temperature Range Modifier Type
  ,                                       ! Dry-Bulb Temperature Range Modifier Schedule Name
  ASHRAETau,                              ! Solar Model Indicator
  ,                                       ! Beam Solar Day Schedule Name
  ,                                       ! Diffuse Solar Day Schedule Name
  0.416,                                  ! ASHRAE Taub {dimensionless}
  2.126;                                  ! ASHRAE Taud {dimensionless}

OS:ComponentData,
  {874760b3-4e01-43f6-af7b-242b8eb231d6}, ! Handle
  Component Data 1,                       ! Name
  {8ad66803-fd95-46c1-838b-7ea3a591f1d7}, ! UUID
  {04b8f00c-b4d4-4752-936a-2d19cc688779}, ! Version UUID
  1366309211,                             ! Creation Timestamp
  1366309211,                             ! Version Timestamp
  {a5e3ea47-00c8-4b65-8b8c-7307f456e975}; ! Name of Object 1

