
OS:Version,
  {cfad1029-e777-4911-b032-11cb8a49f837}, ! Handle
  0.9.3;                                  ! Version Identifier

OS:SizingPeriod:DesignDay,
  {b58c9a01-c36d-4347-9aef-54e50564fca3}, ! Handle
  Virginia Tech Arpt Ann Htg Wind 99% Condns WS=>MCDB, ! Name
  0,                                      ! Maximum Dry-Bulb Temperature {C}
  0,                                      ! Daily Dry-Bulb Temperature Range {deltaC}
  0,                                      ! Humidity Indicating Conditions at Maximum Dry-Bulb {BasedOnField A3}
  93756,                                  ! Barometric Pressure {Pa}
  10.7,                                   ! Wind Speed {m/s}
  290,                                    ! Wind Direction {deg}
  0,                                      ! Sky Clearness
  0,                                      ! Rain Indicator
  0,                                      ! Snow Indicator
  21,                                     ! Day of Month
  1,                                      ! Month
  WinterDesignDay,                        ! Day Type
  0,                                      ! Daylight Saving Time Indicator
  Wetbulb,                                ! Humidity Indicating Type
  ,                                       ! Humidity Indicating Day Schedule Name
  DefaultMultipliers,                     ! Dry-Bulb Temperature Range Modifier Type
  ,                                       ! Dry-Bulb Temperature Range Modifier Schedule Name
  ASHRAEClearSky;                         ! Solar Model Indicator

OS:ComponentData,
  {e2380281-09eb-420a-8e8a-e7e053c6599c}, ! Handle
  Component Data 1,                       ! Name
  {c75da4a4-0889-43c7-b789-e7833e095c58}, ! UUID
  {5f5bb87c-95ad-443a-be0a-c7e35c243586}, ! Version UUID
  1366311022,                             ! Creation Timestamp
  1366311022,                             ! Version Timestamp
  {b58c9a01-c36d-4347-9aef-54e50564fca3}; ! Name of Object 1

