
OS:Version,
  {2e9f8a5d-a161-44c0-9811-2d9caa31f553}, ! Handle
  0.9.3;                                  ! Version Identifier

OS:SizingPeriod:DesignDay,
  {db4f7ace-33a9-47e8-afda-e788cb00a7af}, ! Handle
  Virginia Tech Arpt Ann Htg Wind 99% Condns WS=>MCDB, ! Name
  0,                                      ! Maximum Dry-Bulb Temperature {C}
  0,                                      ! Daily Dry-Bulb Temperature Range {deltaC}
  0,                                      ! Humidity Indicating Conditions at Maximum Dry-Bulb {BasedOnField A3}
  93756,                                  ! Barometric Pressure {Pa}
  10.7,                                   ! Wind Speed {m/s}
  290,                                    ! Wind Direction {deg}
  0,                                      ! Sky Clearness
  0,                                      ! Rain Indicator
  0,                                      ! Snow Indicator
  21,                                     ! Day of Month
  1,                                      ! Month
  WinterDesignDay,                        ! Day Type
  0,                                      ! Daylight Saving Time Indicator
  Wetbulb,                                ! Humidity Indicating Type
  ,                                       ! Humidity Indicating Day Schedule Name
  DefaultMultipliers,                     ! Dry-Bulb Temperature Range Modifier Type
  ,                                       ! Dry-Bulb Temperature Range Modifier Schedule Name
  ASHRAEClearSky;                         ! Solar Model Indicator

