
OS:Version,
  {21e3249a-f3df-481b-aea3-deda37b52620}, ! Handle
  0.9.3;                                  ! Version Identifier

OS:SizingPeriod:DesignDay,
  {0ddc0918-ebcb-409b-87a1-0c5803e927c2}, ! Handle
  Milwaukee Mitchell Intl Ap Ann Htg Wind 99.6% Condns WS=>MCDB, ! Name
  -5.2,                                   ! Maximum Dry-Bulb Temperature {C}
  0,                                      ! Daily Dry-Bulb Temperature Range {deltaC}
  -5.2,                                   ! Humidity Indicating Conditions at Maximum Dry-Bulb {BasedOnField A3}
  98886,                                  ! Barometric Pressure {Pa}
  13,                                     ! Wind Speed {m/s}
  300,                                    ! Wind Direction {deg}
  0,                                      ! Sky Clearness
  0,                                      ! Rain Indicator
  0,                                      ! Snow Indicator
  21,                                     ! Day of Month
  1,                                      ! Month
  WinterDesignDay,                        ! Day Type
  0,                                      ! Daylight Saving Time Indicator
  Wetbulb,                                ! Humidity Indicating Type
  ,                                       ! Humidity Indicating Day Schedule Name
  DefaultMultipliers,                     ! Dry-Bulb Temperature Range Modifier Type
  ,                                       ! Dry-Bulb Temperature Range Modifier Schedule Name
  ASHRAEClearSky;                         ! Solar Model Indicator

OS:ComponentData,
  {9bbf4ad2-da8e-445e-a2ee-a17704bb6a8d}, ! Handle
  Component Data 1,                       ! Name
  {e7fe9560-1f37-45f8-8da2-769bcc0ef406}, ! UUID
  {73896550-7b7c-4664-af51-87b0549ce40b}, ! Version UUID
  1366311556,                             ! Creation Timestamp
  1366311556,                             ! Version Timestamp
  {0ddc0918-ebcb-409b-87a1-0c5803e927c2}; ! Name of Object 1

