
OS:Version,
  {2cbd6c73-0b35-4899-b8ee-4cfa725b77b5}, ! Handle
  0.9.3;                                  ! Version Identifier

OS:SizingPeriod:DesignDay,
  {97a261e9-eb83-45fb-8a8a-fdb69c578e6a}, ! Handle
  Mcconnell Afb Ann Clg 2% Condns WB=>MDB, ! Name
  31,                                     ! Maximum Dry-Bulb Temperature {C}
  11.9,                                   ! Daily Dry-Bulb Temperature Range {deltaC}
  24,                                     ! Humidity Indicating Conditions at Maximum Dry-Bulb {BasedOnField A3}
  96449,                                  ! Barometric Pressure {Pa}
  5.6,                                    ! Wind Speed {m/s}
  190,                                    ! Wind Direction {deg}
  0,                                      ! Sky Clearness
  0,                                      ! Rain Indicator
  0,                                      ! Snow Indicator
  21,                                     ! Day of Month
  7,                                      ! Month
  SummerDesignDay,                        ! Day Type
  0,                                      ! Daylight Saving Time Indicator
  Wetbulb,                                ! Humidity Indicating Type
  ,                                       ! Humidity Indicating Day Schedule Name
  DefaultMultipliers,                     ! Dry-Bulb Temperature Range Modifier Type
  ,                                       ! Dry-Bulb Temperature Range Modifier Schedule Name
  ASHRAETau,                              ! Solar Model Indicator
  ,                                       ! Beam Solar Day Schedule Name
  ,                                       ! Diffuse Solar Day Schedule Name
  0.419,                                  ! ASHRAE Taub {dimensionless}
  2.206;                                  ! ASHRAE Taud {dimensionless}

OS:ComponentData,
  {27867471-dd2d-40b1-ac56-7e631a2ad555}, ! Handle
  Component Data 1,                       ! Name
  {c1929fb1-c8a4-4daf-879b-151623f2dfcb}, ! UUID
  {69bbeaa6-f5c9-4686-adc9-c41869eab11c}, ! Version UUID
  1366307599,                             ! Creation Timestamp
  1366307599,                             ! Version Timestamp
  {97a261e9-eb83-45fb-8a8a-fdb69c578e6a}; ! Name of Object 1

