
OS:Version,
  {b5695896-d139-4a60-919f-e5e1b1a46c87}, ! Handle
  0.9.3;                                  ! Version Identifier

OS:SizingPeriod:DesignDay,
  {f965741a-1a9f-49ef-b41a-911ea26010b3}, ! Handle
  Mc Gregor  Awos Ann Clg .4% Condns DP=>MDB, ! Name
  28.4,                                   ! Maximum Dry-Bulb Temperature {C}
  12.2,                                   ! Daily Dry-Bulb Temperature Range {deltaC}
  24.1,                                   ! Humidity Indicating Conditions at Maximum Dry-Bulb {BasedOnField A3}
  99181,                                  ! Barometric Pressure {Pa}
  4.4,                                    ! Wind Speed {m/s}
  170,                                    ! Wind Direction {deg}
  0,                                      ! Sky Clearness
  0,                                      ! Rain Indicator
  0,                                      ! Snow Indicator
  21,                                     ! Day of Month
  7,                                      ! Month
  SummerDesignDay,                        ! Day Type
  0,                                      ! Daylight Saving Time Indicator
  Dewpoint,                               ! Humidity Indicating Type
  ,                                       ! Humidity Indicating Day Schedule Name
  DefaultMultipliers,                     ! Dry-Bulb Temperature Range Modifier Type
  ,                                       ! Dry-Bulb Temperature Range Modifier Schedule Name
  ASHRAETau,                              ! Solar Model Indicator
  ,                                       ! Beam Solar Day Schedule Name
  ,                                       ! Diffuse Solar Day Schedule Name
  0.456,                                  ! ASHRAE Taub {dimensionless}
  2.109;                                  ! ASHRAE Taud {dimensionless}

OS:ComponentData,
  {9e1006b8-80b7-4a41-9493-4880de4f0a9e}, ! Handle
  Component Data 1,                       ! Name
  {375e6001-569b-4e36-ba94-f9a68d490d87}, ! UUID
  {a3c9a2ba-4803-4f51-ad22-c623cdf9ac43}, ! Version UUID
  1366310823,                             ! Creation Timestamp
  1366310823,                             ! Version Timestamp
  {f965741a-1a9f-49ef-b41a-911ea26010b3}; ! Name of Object 1

