
OS:Version,
  {1f76c9c2-249d-4844-b660-b86a45c5d420}, ! Handle
  0.9.3;                                  ! Version Identifier

OS:SizingPeriod:DesignDay,
  {21efc88b-722f-4659-a577-900fe8ffdaa7}, ! Handle
  Marfa Ap Ann Clg 2% Condns DB=>MWB,     ! Name
  32,                                     ! Maximum Dry-Bulb Temperature {C}
  17.6,                                   ! Daily Dry-Bulb Temperature Range {deltaC}
  16.1,                                   ! Humidity Indicating Conditions at Maximum Dry-Bulb {BasedOnField A3}
  84836,                                  ! Barometric Pressure {Pa}
  4.3,                                    ! Wind Speed {m/s}
  180,                                    ! Wind Direction {deg}
  0,                                      ! Sky Clearness
  0,                                      ! Rain Indicator
  0,                                      ! Snow Indicator
  21,                                     ! Day of Month
  6,                                      ! Month
  SummerDesignDay,                        ! Day Type
  0,                                      ! Daylight Saving Time Indicator
  Wetbulb,                                ! Humidity Indicating Type
  ,                                       ! Humidity Indicating Day Schedule Name
  DefaultMultipliers,                     ! Dry-Bulb Temperature Range Modifier Type
  ,                                       ! Dry-Bulb Temperature Range Modifier Schedule Name
  ASHRAETau,                              ! Solar Model Indicator
  ,                                       ! Beam Solar Day Schedule Name
  ,                                       ! Diffuse Solar Day Schedule Name
  0.481,                                  ! ASHRAE Taub {dimensionless}
  1.819;                                  ! ASHRAE Taud {dimensionless}

OS:ComponentData,
  {ea8902ed-c3cd-42bf-8323-2fe08c9f58b7}, ! Handle
  Component Data 1,                       ! Name
  {2c9269fc-f88f-4d82-9c72-b3325676dc92}, ! UUID
  {224ec56c-8ba0-4fce-821e-eb4175e0b67b}, ! Version UUID
  1366310815,                             ! Creation Timestamp
  1366310815,                             ! Version Timestamp
  {21efc88b-722f-4659-a577-900fe8ffdaa7}; ! Name of Object 1

