
OS:Version,
  {a6dd2f05-7f67-413f-a2f2-e42dd2db44e1}, ! Handle
  0.9.3;                                  ! Version Identifier

OS:SizingPeriod:DesignDay,
  {79c314a0-b2fd-4634-a35f-2f9b8b76e531}, ! Handle
  Randolph Afb Ann Htg Wind 99.6% Condns WS=>MCDB, ! Name
  9.1,                                    ! Maximum Dry-Bulb Temperature {C}
  0,                                      ! Daily Dry-Bulb Temperature Range {deltaC}
  9.1,                                    ! Humidity Indicating Conditions at Maximum Dry-Bulb {BasedOnField A3}
  98569,                                  ! Barometric Pressure {Pa}
  11,                                     ! Wind Speed {m/s}
  340,                                    ! Wind Direction {deg}
  0,                                      ! Sky Clearness
  0,                                      ! Rain Indicator
  0,                                      ! Snow Indicator
  21,                                     ! Day of Month
  1,                                      ! Month
  WinterDesignDay,                        ! Day Type
  0,                                      ! Daylight Saving Time Indicator
  Wetbulb,                                ! Humidity Indicating Type
  ,                                       ! Humidity Indicating Day Schedule Name
  DefaultMultipliers,                     ! Dry-Bulb Temperature Range Modifier Type
  ,                                       ! Dry-Bulb Temperature Range Modifier Schedule Name
  ASHRAEClearSky;                         ! Solar Model Indicator

OS:ComponentData,
  {87e721cc-d6a5-4395-b7cd-b7f5a2781789}, ! Handle
  Component Data 1,                       ! Name
  {5e897557-94dd-4dea-8217-e2dedffda6d0}, ! UUID
  {d7566ce3-6d6d-4032-badb-bdfbb99a0a99}, ! Version UUID
  1366310859,                             ! Creation Timestamp
  1366310859,                             ! Version Timestamp
  {79c314a0-b2fd-4634-a35f-2f9b8b76e531}; ! Name of Object 1

