
OS:Version,
  {cf30761e-ae4d-47ab-83cc-b56f685d569a}, ! Handle
  0.9.3;                                  ! Version Identifier

OS:SizingPeriod:DesignDay,
  {117c3aef-76ec-436a-9ec7-f66c6b8a0ae3}, ! Handle
  ST._LOUIS Ann Clg 1% Condns DP=>MDB,    ! Name
  29.2,                                   ! Maximum Dry-Bulb Temperature {C}
  9.5,                                    ! Daily Dry-Bulb Temperature Range {deltaC}
  23.9,                                   ! Humidity Indicating Conditions at Maximum Dry-Bulb {BasedOnField A3}
  99276,                                  ! Barometric Pressure {Pa}
  4.6,                                    ! Wind Speed {m/s}
  240,                                    ! Wind Direction {deg}
  0,                                      ! Sky Clearness
  0,                                      ! Rain Indicator
  0,                                      ! Snow Indicator
  21,                                     ! Day of Month
  7,                                      ! Month
  SummerDesignDay,                        ! Day Type
  0,                                      ! Daylight Saving Time Indicator
  Dewpoint,                               ! Humidity Indicating Type
  ,                                       ! Humidity Indicating Day Schedule Name
  DefaultMultipliers,                     ! Dry-Bulb Temperature Range Modifier Type
  ,                                       ! Dry-Bulb Temperature Range Modifier Schedule Name
  ASHRAETau,                              ! Solar Model Indicator
  ,                                       ! Beam Solar Day Schedule Name
  ,                                       ! Diffuse Solar Day Schedule Name
  0.47,                                   ! ASHRAE Taub {dimensionless}
  2.004;                                  ! ASHRAE Taud {dimensionless}

OS:ComponentData,
  {d7551603-4034-4589-91aa-5e38a74dedca}, ! Handle
  Component Data 1,                       ! Name
  {b5701b2b-a305-47bf-85fb-c74ac9982e5d}, ! UUID
  {2382f159-38c0-40f5-a7b1-0c12daac4f56}, ! Version UUID
  1366308597,                             ! Creation Timestamp
  1366308597,                             ! Version Timestamp
  {117c3aef-76ec-436a-9ec7-f66c6b8a0ae3}; ! Name of Object 1

