
OS:Version,
  {df10bf33-9e10-4e3a-9868-6bf330ae521f}, ! Handle
  0.9.3;                                  ! Version Identifier

OS:SizingPeriod:DesignDay,
  {aff35d83-dfa2-4fd8-8343-b86c79850a35}, ! Handle
  Melfa Accomack Arpt Ann Clg 1% Condns Enth=>MDB, ! Name
  29.5,                                   ! Maximum Dry-Bulb Temperature {C}
  9.6,                                    ! Daily Dry-Bulb Temperature Range {deltaC}
  83200,                                  ! Humidity Indicating Conditions at Maximum Dry-Bulb {BasedOnField A3}
  101145,                                 ! Barometric Pressure {Pa}
  3.4,                                    ! Wind Speed {m/s}
  240,                                    ! Wind Direction {deg}
  0,                                      ! Sky Clearness
  0,                                      ! Rain Indicator
  0,                                      ! Snow Indicator
  21,                                     ! Day of Month
  7,                                      ! Month
  SummerDesignDay,                        ! Day Type
  0,                                      ! Daylight Saving Time Indicator
  Enthalpy,                               ! Humidity Indicating Type
  ,                                       ! Humidity Indicating Day Schedule Name
  DefaultMultipliers,                     ! Dry-Bulb Temperature Range Modifier Type
  ,                                       ! Dry-Bulb Temperature Range Modifier Schedule Name
  ASHRAETau,                              ! Solar Model Indicator
  ,                                       ! Beam Solar Day Schedule Name
  ,                                       ! Diffuse Solar Day Schedule Name
  0.582,                                  ! ASHRAE Taub {dimensionless}
  1.723;                                  ! ASHRAE Taud {dimensionless}

OS:ComponentData,
  {23b4dcb7-2624-4004-97d8-fcd0e264ec05}, ! Handle
  Component Data 1,                       ! Name
  {0fd28e89-08e4-4596-b0e8-9a6a46b9be17}, ! UUID
  {6e2b0015-7cbd-4826-ac75-0f4f3f4dae5a}, ! Version UUID
  1366311113,                             ! Creation Timestamp
  1366311113,                             ! Version Timestamp
  {aff35d83-dfa2-4fd8-8343-b86c79850a35}; ! Name of Object 1

