
OS:Version,
  {34acb859-663d-49cc-9d2c-bacb3db7ac17}, ! Handle
  0.9.3;                                  ! Version Identifier

OS:SizingPeriod:DesignDay,
  {a9d0bdc6-6669-454a-9787-bcc2320f1cf7}, ! Handle
  NEW_YORK Ann Clg 1% Condns WB=>MDB,     ! Name
  27.7,                                   ! Maximum Dry-Bulb Temperature {C}
  7.4,                                    ! Daily Dry-Bulb Temperature Range {deltaC}
  24.3,                                   ! Humidity Indicating Conditions at Maximum Dry-Bulb {BasedOnField A3}
  100642,                                 ! Barometric Pressure {Pa}
  5.6,                                    ! Wind Speed {m/s}
  230,                                    ! Wind Direction {deg}
  0,                                      ! Sky Clearness
  0,                                      ! Rain Indicator
  0,                                      ! Snow Indicator
  21,                                     ! Day of Month
  7,                                      ! Month
  SummerDesignDay,                        ! Day Type
  0,                                      ! Daylight Saving Time Indicator
  Wetbulb,                                ! Humidity Indicating Type
  ,                                       ! Humidity Indicating Day Schedule Name
  DefaultMultipliers,                     ! Dry-Bulb Temperature Range Modifier Type
  ,                                       ! Dry-Bulb Temperature Range Modifier Schedule Name
  ASHRAETau,                              ! Solar Model Indicator
  ,                                       ! Beam Solar Day Schedule Name
  ,                                       ! Diffuse Solar Day Schedule Name
  0.541,                                  ! ASHRAE Taub {dimensionless}
  1.8;                                    ! ASHRAE Taud {dimensionless}

OS:ComponentData,
  {11fd4507-a828-4b38-91df-001869b82b0a}, ! Handle
  Component Data 1,                       ! Name
  {534e8273-855d-4850-9f2d-01eb7aaf2bd1}, ! UUID
  {39041fe0-77f7-42a7-911a-ea090aa4d463}, ! Version UUID
  1366309683,                             ! Creation Timestamp
  1366309683,                             ! Version Timestamp
  {a9d0bdc6-6669-454a-9787-bcc2320f1cf7}; ! Name of Object 1

