
OS:Version,
  {fec86058-f90c-440f-a85b-cafad999aeab}, ! Handle
  0.9.3;                                  ! Version Identifier

OS:SizingPeriod:DesignDay,
  {299d3a33-6f21-47be-b09f-055c670ec3e6}, ! Handle
  Olympia Ann Clg 1% Condns Enth=>MDB,    ! Name
  27.2,                                   ! Maximum Dry-Bulb Temperature {C}
  14.6,                                   ! Daily Dry-Bulb Temperature Range {deltaC}
  53200,                                  ! Humidity Indicating Conditions at Maximum Dry-Bulb {BasedOnField A3}
  100594,                                 ! Barometric Pressure {Pa}
  3.4,                                    ! Wind Speed {m/s}
  20,                                     ! Wind Direction {deg}
  0,                                      ! Sky Clearness
  0,                                      ! Rain Indicator
  0,                                      ! Snow Indicator
  21,                                     ! Day of Month
  8,                                      ! Month
  SummerDesignDay,                        ! Day Type
  0,                                      ! Daylight Saving Time Indicator
  Enthalpy,                               ! Humidity Indicating Type
  ,                                       ! Humidity Indicating Day Schedule Name
  DefaultMultipliers,                     ! Dry-Bulb Temperature Range Modifier Type
  ,                                       ! Dry-Bulb Temperature Range Modifier Schedule Name
  ASHRAETau,                              ! Solar Model Indicator
  ,                                       ! Beam Solar Day Schedule Name
  ,                                       ! Diffuse Solar Day Schedule Name
  0.359,                                  ! ASHRAE Taub {dimensionless}
  2.536;                                  ! ASHRAE Taud {dimensionless}

OS:ComponentData,
  {0576f10a-d82d-4741-bc33-84e4c157faa9}, ! Handle
  Component Data 1,                       ! Name
  {d1f435a0-7531-4827-bf5b-f6912ac6734c}, ! UUID
  {c6360314-7726-4a4f-af39-980d19ebac92}, ! Version UUID
  1366311311,                             ! Creation Timestamp
  1366311311,                             ! Version Timestamp
  {299d3a33-6f21-47be-b09f-055c670ec3e6}; ! Name of Object 1

