
OS:Version,
  {57747d6e-8697-4151-b8a2-f87e17b71943}, ! Handle
  0.9.3;                                  ! Version Identifier

OS:SizingPeriod:DesignDay,
  {e5f934b9-37bf-4abc-8c04-5ca4f5b08bee}, ! Handle
  Marshall Ryan Awos Ann Clg 1% Condns DP=>MDB, ! Name
  27.3,                                   ! Maximum Dry-Bulb Temperature {C}
  10.2,                                   ! Daily Dry-Bulb Temperature Range {deltaC}
  22,                                     ! Humidity Indicating Conditions at Maximum Dry-Bulb {BasedOnField A3}
  97086,                                  ! Barometric Pressure {Pa}
  7.2,                                    ! Wind Speed {m/s}
  200,                                    ! Wind Direction {deg}
  0,                                      ! Sky Clearness
  0,                                      ! Rain Indicator
  0,                                      ! Snow Indicator
  21,                                     ! Day of Month
  7,                                      ! Month
  SummerDesignDay,                        ! Day Type
  0,                                      ! Daylight Saving Time Indicator
  Dewpoint,                               ! Humidity Indicating Type
  ,                                       ! Humidity Indicating Day Schedule Name
  DefaultMultipliers,                     ! Dry-Bulb Temperature Range Modifier Type
  ,                                       ! Dry-Bulb Temperature Range Modifier Schedule Name
  ASHRAETau,                              ! Solar Model Indicator
  ,                                       ! Beam Solar Day Schedule Name
  ,                                       ! Diffuse Solar Day Schedule Name
  0.398,                                  ! ASHRAE Taub {dimensionless}
  2.26;                                   ! ASHRAE Taud {dimensionless}

OS:ComponentData,
  {7f692d2e-4682-4098-ac33-553b94a87ee9}, ! Handle
  Component Data 1,                       ! Name
  {7fea0a0a-e99c-42c2-95ba-bb5f874e11d5}, ! UUID
  {a31f44a8-4e15-4440-ba15-92bcd84f40e3}, ! Version UUID
  1366308301,                             ! Creation Timestamp
  1366308301,                             ! Version Timestamp
  {e5f934b9-37bf-4abc-8c04-5ca4f5b08bee}; ! Name of Object 1

