
OS:Version,
  {e4b1b111-6946-4afd-bc55-9e612ca3658a}, ! Handle
  0.9.3;                                  ! Version Identifier

OS:SizingPeriod:DesignDay,
  {52e60652-7c23-4df7-85ad-78baa039bd99}, ! Handle
  RICHMOND Ann Clg 2% Condns DB=>MWB,     ! Name
  32.1,                                   ! Maximum Dry-Bulb Temperature {C}
  10.4,                                   ! Daily Dry-Bulb Temperature Range {deltaC}
  23.5,                                   ! Humidity Indicating Conditions at Maximum Dry-Bulb {BasedOnField A3}
  100726,                                 ! Barometric Pressure {Pa}
  4.5,                                    ! Wind Speed {m/s}
  230,                                    ! Wind Direction {deg}
  0,                                      ! Sky Clearness
  0,                                      ! Rain Indicator
  0,                                      ! Snow Indicator
  21,                                     ! Day of Month
  7,                                      ! Month
  SummerDesignDay,                        ! Day Type
  0,                                      ! Daylight Saving Time Indicator
  Wetbulb,                                ! Humidity Indicating Type
  ,                                       ! Humidity Indicating Day Schedule Name
  DefaultMultipliers,                     ! Dry-Bulb Temperature Range Modifier Type
  ,                                       ! Dry-Bulb Temperature Range Modifier Schedule Name
  ASHRAETau,                              ! Solar Model Indicator
  ,                                       ! Beam Solar Day Schedule Name
  ,                                       ! Diffuse Solar Day Schedule Name
  0.567,                                  ! ASHRAE Taub {dimensionless}
  1.742;                                  ! ASHRAE Taud {dimensionless}

OS:ComponentData,
  {f7414f3e-d3c4-4f54-af6d-702abec37861}, ! Handle
  Component Data 1,                       ! Name
  {3add1011-65ed-48bd-91d2-a70d833845cf}, ! UUID
  {88c19eed-a201-4b46-831d-79cef14dd836}, ! Version UUID
  1366311164,                             ! Creation Timestamp
  1366311164,                             ! Version Timestamp
  {52e60652-7c23-4df7-85ad-78baa039bd99}; ! Name of Object 1

