
OS:Version,
  {99a6b3ba-fe45-4113-b1ad-955bdbd9c832}, ! Handle
  0.9.3;                                  ! Version Identifier

OS:SizingPeriod:DesignDay,
  {abfab7a0-ee2d-4bec-bcbd-2c308ba15b74}, ! Handle
  Patuxent River Nas Ann Clg 1% Condns WB=>MDB, ! Name
  30.2,                                   ! Maximum Dry-Bulb Temperature {C}
  8.6,                                    ! Daily Dry-Bulb Temperature Range {deltaC}
  25.4,                                   ! Humidity Indicating Conditions at Maximum Dry-Bulb {BasedOnField A3}
  101157,                                 ! Barometric Pressure {Pa}
  3.9,                                    ! Wind Speed {m/s}
  250,                                    ! Wind Direction {deg}
  0,                                      ! Sky Clearness
  0,                                      ! Rain Indicator
  0,                                      ! Snow Indicator
  21,                                     ! Day of Month
  7,                                      ! Month
  SummerDesignDay,                        ! Day Type
  0,                                      ! Daylight Saving Time Indicator
  Wetbulb,                                ! Humidity Indicating Type
  ,                                       ! Humidity Indicating Day Schedule Name
  DefaultMultipliers,                     ! Dry-Bulb Temperature Range Modifier Type
  ,                                       ! Dry-Bulb Temperature Range Modifier Schedule Name
  ASHRAETau,                              ! Solar Model Indicator
  ,                                       ! Beam Solar Day Schedule Name
  ,                                       ! Diffuse Solar Day Schedule Name
  0.592,                                  ! ASHRAE Taub {dimensionless}
  1.683;                                  ! ASHRAE Taud {dimensionless}

OS:ComponentData,
  {e6b87316-7169-4c90-9589-6a7391ed4a4c}, ! Handle
  Component Data 1,                       ! Name
  {793daf99-b0ae-48c1-8e02-b8caada7d4d3}, ! UUID
  {1a989a12-c1a7-4acf-b756-82cb1d218df3}, ! Version UUID
  1366307858,                             ! Creation Timestamp
  1366307858,                             ! Version Timestamp
  {abfab7a0-ee2d-4bec-bcbd-2c308ba15b74}; ! Name of Object 1

