
OS:Version,
  {870ec45b-2c01-4016-bf8e-9e8c1f636002}, ! Handle
  0.9.3;                                  ! Version Identifier

OS:SizingPeriod:DesignDay,
  {d5e808d9-61a6-4e38-ace7-8208e5fdc67d}, ! Handle
  Orr Ann Htg Wind 99.6% Condns WS=>MCDB, ! Name
  -12.9,                                  ! Maximum Dry-Bulb Temperature {C}
  0,                                      ! Daily Dry-Bulb Temperature Range {deltaC}
  -12.9,                                  ! Humidity Indicating Conditions at Maximum Dry-Bulb {BasedOnField A3}
  96646,                                  ! Barometric Pressure {Pa}
  8.9,                                    ! Wind Speed {m/s}
  310,                                    ! Wind Direction {deg}
  0,                                      ! Sky Clearness
  0,                                      ! Rain Indicator
  0,                                      ! Snow Indicator
  21,                                     ! Day of Month
  1,                                      ! Month
  WinterDesignDay,                        ! Day Type
  0,                                      ! Daylight Saving Time Indicator
  Wetbulb,                                ! Humidity Indicating Type
  ,                                       ! Humidity Indicating Day Schedule Name
  DefaultMultipliers,                     ! Dry-Bulb Temperature Range Modifier Type
  ,                                       ! Dry-Bulb Temperature Range Modifier Schedule Name
  ASHRAEClearSky;                         ! Solar Model Indicator

OS:ComponentData,
  {c1abcc92-dc0e-4b37-b760-23df967c47c4}, ! Handle
  Component Data 1,                       ! Name
  {697cc742-4643-4df9-99be-db88fb79abaa}, ! UUID
  {08148a5c-f103-40c4-ac3b-f06b01685131}, ! Version UUID
  1366308346,                             ! Creation Timestamp
  1366308346,                             ! Version Timestamp
  {d5e808d9-61a6-4e38-ace7-8208e5fdc67d}; ! Name of Object 1

