
OS:Version,
  {dffcc271-ac19-4d43-a309-c6319dd2bf8f}, ! Handle
  0.9.3;                                  ! Version Identifier

OS:SizingPeriod:DesignDay,
  {e6e287fd-8743-4f8b-9f7a-f03f0a40a12b}, ! Handle
  Palacios Municipal Ap Ann Htg Wind 99% Condns WS=>MCDB, ! Name
  10.7,                                   ! Maximum Dry-Bulb Temperature {C}
  0,                                      ! Daily Dry-Bulb Temperature Range {deltaC}
  10.7,                                   ! Humidity Indicating Conditions at Maximum Dry-Bulb {BasedOnField A3}
  101265,                                 ! Barometric Pressure {Pa}
  11.4,                                   ! Wind Speed {m/s}
  0,                                      ! Wind Direction {deg}
  0,                                      ! Sky Clearness
  0,                                      ! Rain Indicator
  0,                                      ! Snow Indicator
  21,                                     ! Day of Month
  1,                                      ! Month
  WinterDesignDay,                        ! Day Type
  0,                                      ! Daylight Saving Time Indicator
  Wetbulb,                                ! Humidity Indicating Type
  ,                                       ! Humidity Indicating Day Schedule Name
  DefaultMultipliers,                     ! Dry-Bulb Temperature Range Modifier Type
  ,                                       ! Dry-Bulb Temperature Range Modifier Schedule Name
  ASHRAEClearSky;                         ! Solar Model Indicator

OS:ComponentData,
  {334b62b7-925f-49cb-82df-209e208bd12f}, ! Handle
  Component Data 1,                       ! Name
  {d8a2f629-d641-46ef-8129-dc076048a599}, ! UUID
  {71a50582-5e5d-42fd-9537-6710331b38e7}, ! Version UUID
  1366310843,                             ! Creation Timestamp
  1366310843,                             ! Version Timestamp
  {e6e287fd-8743-4f8b-9f7a-f03f0a40a12b}; ! Name of Object 1

