
OS:Version,
  {989f10e2-b3dd-4ecf-90cc-2147e00e7e0d}, ! Handle
  0.9.3;                                  ! Version Identifier

OS:SizingPeriod:DesignDay,
  {c06061c1-71d1-4ea1-a10a-339c63372ed8}, ! Handle
  Soldotna Ann Clg 2% Condns DB=>MWB,     ! Name
  18.5,                                   ! Maximum Dry-Bulb Temperature {C}
  8.4,                                    ! Daily Dry-Bulb Temperature Range {deltaC}
  12.4,                                   ! Humidity Indicating Conditions at Maximum Dry-Bulb {BasedOnField A3}
  100917,                                 ! Barometric Pressure {Pa}
  2.9,                                    ! Wind Speed {m/s}
  280,                                    ! Wind Direction {deg}
  0,                                      ! Sky Clearness
  0,                                      ! Rain Indicator
  0,                                      ! Snow Indicator
  21,                                     ! Day of Month
  7,                                      ! Month
  SummerDesignDay,                        ! Day Type
  0,                                      ! Daylight Saving Time Indicator
  Wetbulb,                                ! Humidity Indicating Type
  ,                                       ! Humidity Indicating Day Schedule Name
  DefaultMultipliers,                     ! Dry-Bulb Temperature Range Modifier Type
  ,                                       ! Dry-Bulb Temperature Range Modifier Schedule Name
  ASHRAETau,                              ! Solar Model Indicator
  ,                                       ! Beam Solar Day Schedule Name
  ,                                       ! Diffuse Solar Day Schedule Name
  0.376,                                  ! ASHRAE Taub {dimensionless}
  2.229;                                  ! ASHRAE Taud {dimensionless}

