
OS:Version,
  {ac6a9010-52e8-4071-abd2-b5d2e7b6e62a}, ! Handle
  0.9.3;                                  ! Version Identifier

OS:SizingPeriod:DesignDay,
  {6317d451-97b1-4df2-a183-bbb3a79fb8af}, ! Handle
  Phoenix Sky Harbor Intl Ap Ann Htg Wind 99.6% Condns WS=>MCDB, ! Name
  14.8,                                   ! Maximum Dry-Bulb Temperature {C}
  0,                                      ! Daily Dry-Bulb Temperature Range {deltaC}
  14.8,                                   ! Humidity Indicating Conditions at Maximum Dry-Bulb {BasedOnField A3}
  97342,                                  ! Barometric Pressure {Pa}
  8.2,                                    ! Wind Speed {m/s}
  100,                                    ! Wind Direction {deg}
  0,                                      ! Sky Clearness
  0,                                      ! Rain Indicator
  0,                                      ! Snow Indicator
  21,                                     ! Day of Month
  12,                                     ! Month
  WinterDesignDay,                        ! Day Type
  0,                                      ! Daylight Saving Time Indicator
  Wetbulb,                                ! Humidity Indicating Type
  ,                                       ! Humidity Indicating Day Schedule Name
  DefaultMultipliers,                     ! Dry-Bulb Temperature Range Modifier Type
  ,                                       ! Dry-Bulb Temperature Range Modifier Schedule Name
  ASHRAEClearSky;                         ! Solar Model Indicator

OS:ComponentData,
  {170f88c9-b2ec-4d07-86be-9b3ba796da06}, ! Handle
  Component Data 1,                       ! Name
  {77c878cd-b938-4169-9c2a-0bb212577b9d}, ! UUID
  {478463d2-61ff-4120-9488-521353cd8eb2}, ! Version UUID
  1366306294,                             ! Creation Timestamp
  1366306294,                             ! Version Timestamp
  {6317d451-97b1-4df2-a183-bbb3a79fb8af}; ! Name of Object 1

