
OS:Version,
  {80f93920-a9c0-4d78-89e1-741e1ce7f7ab}, ! Handle
  0.9.3;                                  ! Version Identifier

OS:SizingPeriod:DesignDay,
  {85c61c72-ba9b-4712-b63e-1c65b91433f8}, ! Handle
  Midland/Odessa Ann Hum_n 99.6% Condns DP=>MCDB, ! Name
  2.5,                                    ! Maximum Dry-Bulb Temperature {C}
  0,                                      ! Daily Dry-Bulb Temperature Range {deltaC}
  -17.4,                                  ! Humidity Indicating Conditions at Maximum Dry-Bulb {BasedOnField A3}
  91279,                                  ! Barometric Pressure {Pa}
  4.1,                                    ! Wind Speed {m/s}
  40,                                     ! Wind Direction {deg}
  0,                                      ! Sky Clearness
  0,                                      ! Rain Indicator
  0,                                      ! Snow Indicator
  21,                                     ! Day of Month
  12,                                     ! Month
  WinterDesignDay,                        ! Day Type
  0,                                      ! Daylight Saving Time Indicator
  Dewpoint,                               ! Humidity Indicating Type
  ,                                       ! Humidity Indicating Day Schedule Name
  DefaultMultipliers,                     ! Dry-Bulb Temperature Range Modifier Type
  ,                                       ! Dry-Bulb Temperature Range Modifier Schedule Name
  ASHRAEClearSky;                         ! Solar Model Indicator

OS:ComponentData,
  {f0def35d-fa41-4388-9620-f859585895c9}, ! Handle
  Component Data 1,                       ! Name
  {af0943db-db49-4213-a22a-11ff71db75e1}, ! UUID
  {6b9a4ce0-1ce0-4b70-979a-6f4fc37ba4bf}, ! Version UUID
  1366310830,                             ! Creation Timestamp
  1366310830,                             ! Version Timestamp
  {85c61c72-ba9b-4712-b63e-1c65b91433f8}; ! Name of Object 1

