
OS:Version,
  {8edcae48-e2df-4b74-b19f-3e0e1182be62}, ! Handle
  0.9.3;                                  ! Version Identifier

OS:SizingPeriod:DesignDay,
  {c3c5badf-cafc-4c8a-a0e2-aa916627ce12}, ! Handle
  San Antonio Stinson Ann Clg 1% Condns WB=>MDB, ! Name
  31.4,                                   ! Maximum Dry-Bulb Temperature {C}
  11.7,                                   ! Daily Dry-Bulb Temperature Range {deltaC}
  25.8,                                   ! Humidity Indicating Conditions at Maximum Dry-Bulb {BasedOnField A3}
  99228,                                  ! Barometric Pressure {Pa}
  4.4,                                    ! Wind Speed {m/s}
  130,                                    ! Wind Direction {deg}
  0,                                      ! Sky Clearness
  0,                                      ! Rain Indicator
  0,                                      ! Snow Indicator
  21,                                     ! Day of Month
  8,                                      ! Month
  SummerDesignDay,                        ! Day Type
  0,                                      ! Daylight Saving Time Indicator
  Wetbulb,                                ! Humidity Indicating Type
  ,                                       ! Humidity Indicating Day Schedule Name
  DefaultMultipliers,                     ! Dry-Bulb Temperature Range Modifier Type
  ,                                       ! Dry-Bulb Temperature Range Modifier Schedule Name
  ASHRAETau,                              ! Solar Model Indicator
  ,                                       ! Beam Solar Day Schedule Name
  ,                                       ! Diffuse Solar Day Schedule Name
  0.454,                                  ! ASHRAE Taub {dimensionless}
  2.127;                                  ! ASHRAE Taud {dimensionless}

OS:ComponentData,
  {72ba5553-48a0-4320-8a79-b9d906ad82d4}, ! Handle
  Component Data 1,                       ! Name
  {de650503-cf17-4144-8754-a1046baeb9f0}, ! UUID
  {3048fdfc-3c89-49ba-8976-b389e190a3ed}, ! Version UUID
  1366310886,                             ! Creation Timestamp
  1366310886,                             ! Version Timestamp
  {c3c5badf-cafc-4c8a-a0e2-aa916627ce12}; ! Name of Object 1

