
OS:Version,
  {730a5288-6338-44f1-bc56-d9756f53789a}, ! Handle
  0.9.3;                                  ! Version Identifier

OS:SizingPeriod:DesignDay,
  {3358e0dc-e60d-475a-952c-fe7a0fb0a36a}, ! Handle
  Tonopah Ann Clg .4% Condns DB=>MWB,     ! Name
  35.2,                                   ! Maximum Dry-Bulb Temperature {C}
  18.2,                                   ! Daily Dry-Bulb Temperature Range {deltaC}
  15.6,                                   ! Humidity Indicating Conditions at Maximum Dry-Bulb {BasedOnField A3}
  82970,                                  ! Barometric Pressure {Pa}
  5.1,                                    ! Wind Speed {m/s}
  180,                                    ! Wind Direction {deg}
  0,                                      ! Sky Clearness
  0,                                      ! Rain Indicator
  0,                                      ! Snow Indicator
  21,                                     ! Day of Month
  7,                                      ! Month
  SummerDesignDay,                        ! Day Type
  0,                                      ! Daylight Saving Time Indicator
  Wetbulb,                                ! Humidity Indicating Type
  ,                                       ! Humidity Indicating Day Schedule Name
  DefaultMultipliers,                     ! Dry-Bulb Temperature Range Modifier Type
  ,                                       ! Dry-Bulb Temperature Range Modifier Schedule Name
  ASHRAETau,                              ! Solar Model Indicator
  ,                                       ! Beam Solar Day Schedule Name
  ,                                       ! Diffuse Solar Day Schedule Name
  0.483,                                  ! ASHRAE Taub {dimensionless}
  1.772;                                  ! ASHRAE Taud {dimensionless}

OS:ComponentData,
  {d1e32f26-69ac-4c99-99d5-a5ccf61ccbf2}, ! Handle
  Component Data 1,                       ! Name
  {cbf820ef-e466-4aed-9cb0-95e7c832f249}, ! UUID
  {a97ae739-2f52-4704-8aea-f95da3e56d0e}, ! Version UUID
  1366309550,                             ! Creation Timestamp
  1366309550,                             ! Version Timestamp
  {3358e0dc-e60d-475a-952c-fe7a0fb0a36a}; ! Name of Object 1

