
OS:Version,
  {9cae7b1b-8ea0-43b3-9a8c-52ce2a58010e}, ! Handle
  0.9.3;                                  ! Version Identifier

OS:SizingPeriod:DesignDay,
  {e16d931a-96f1-4667-81fc-6cb41ff21320}, ! Handle
  Poplar Bluff Amos Ann Clg 2% Condns Enth=>MDB, ! Name
  30.4,                                   ! Maximum Dry-Bulb Temperature {C}
  10.6,                                   ! Daily Dry-Bulb Temperature Range {deltaC}
  78300,                                  ! Humidity Indicating Conditions at Maximum Dry-Bulb {BasedOnField A3}
  99583,                                  ! Barometric Pressure {Pa}
  3.1,                                    ! Wind Speed {m/s}
  200,                                    ! Wind Direction {deg}
  0,                                      ! Sky Clearness
  0,                                      ! Rain Indicator
  0,                                      ! Snow Indicator
  21,                                     ! Day of Month
  7,                                      ! Month
  SummerDesignDay,                        ! Day Type
  0,                                      ! Daylight Saving Time Indicator
  Enthalpy,                               ! Humidity Indicating Type
  ,                                       ! Humidity Indicating Day Schedule Name
  DefaultMultipliers,                     ! Dry-Bulb Temperature Range Modifier Type
  ,                                       ! Dry-Bulb Temperature Range Modifier Schedule Name
  ASHRAETau,                              ! Solar Model Indicator
  ,                                       ! Beam Solar Day Schedule Name
  ,                                       ! Diffuse Solar Day Schedule Name
  0.488,                                  ! ASHRAE Taub {dimensionless}
  1.959;                                  ! ASHRAE Taud {dimensionless}

OS:ComponentData,
  {cc66284a-f35b-4209-8956-b91dce6c6cc6}, ! Handle
  Component Data 1,                       ! Name
  {1eef45ba-5fb2-489e-b696-a0448eeed80f}, ! UUID
  {13cfcb9d-f924-4ca1-833f-719ee74dd5c7}, ! Version UUID
  1366308546,                             ! Creation Timestamp
  1366308546,                             ! Version Timestamp
  {e16d931a-96f1-4667-81fc-6cb41ff21320}; ! Name of Object 1

