
OS:Version,
  {0e2fb5e6-286f-4a1a-9d4d-7b63a17d83af}, ! Handle
  0.9.3;                                  ! Version Identifier

OS:SizingPeriod:DesignDay,
  {e3aaebc7-1809-4cc3-955c-eaba76c8237c}, ! Handle
  Pease Intl Tradepor Ann Htg Wind 99% Condns WS=>MCDB, ! Name
  -5.5,                                   ! Maximum Dry-Bulb Temperature {C}
  0,                                      ! Daily Dry-Bulb Temperature Range {deltaC}
  -5.5,                                   ! Humidity Indicating Conditions at Maximum Dry-Bulb {BasedOnField A3}
  100953,                                 ! Barometric Pressure {Pa}
  11,                                     ! Wind Speed {m/s}
  300,                                    ! Wind Direction {deg}
  0,                                      ! Sky Clearness
  0,                                      ! Rain Indicator
  0,                                      ! Snow Indicator
  21,                                     ! Day of Month
  1,                                      ! Month
  WinterDesignDay,                        ! Day Type
  0,                                      ! Daylight Saving Time Indicator
  Wetbulb,                                ! Humidity Indicating Type
  ,                                       ! Humidity Indicating Day Schedule Name
  DefaultMultipliers,                     ! Dry-Bulb Temperature Range Modifier Type
  ,                                       ! Dry-Bulb Temperature Range Modifier Schedule Name
  ASHRAEClearSky;                         ! Solar Model Indicator

OS:ComponentData,
  {db16fac7-8483-4b84-a7ba-7f11cebee976}, ! Handle
  Component Data 1,                       ! Name
  {6e6926ef-4f46-4081-835b-f4d5737f5386}, ! UUID
  {9482bb4b-051c-4830-a925-edd2ad630a43}, ! Version UUID
  1366309276,                             ! Creation Timestamp
  1366309276,                             ! Version Timestamp
  {e3aaebc7-1809-4cc3-955c-eaba76c8237c}; ! Name of Object 1

