
OS:Version,
  {12bb70e6-344d-457d-a949-e6ff51071982}, ! Handle
  0.9.3;                                  ! Version Identifier

OS:SizingPeriod:DesignDay,
  {cd9b8427-6a38-4087-84ea-5a2e467c2acd}, ! Handle
  Molokai  Amos Ann Clg 2% Condns WB=>MDB, ! Name
  27.6,                                   ! Maximum Dry-Bulb Temperature {C}
  7,                                      ! Daily Dry-Bulb Temperature Range {deltaC}
  23.6,                                   ! Humidity Indicating Conditions at Maximum Dry-Bulb {BasedOnField A3}
  99690,                                  ! Barometric Pressure {Pa}
  6.1,                                    ! Wind Speed {m/s}
  60,                                     ! Wind Direction {deg}
  0,                                      ! Sky Clearness
  0,                                      ! Rain Indicator
  0,                                      ! Snow Indicator
  21,                                     ! Day of Month
  8,                                      ! Month
  SummerDesignDay,                        ! Day Type
  0,                                      ! Daylight Saving Time Indicator
  Wetbulb,                                ! Humidity Indicating Type
  ,                                       ! Humidity Indicating Day Schedule Name
  DefaultMultipliers,                     ! Dry-Bulb Temperature Range Modifier Type
  ,                                       ! Dry-Bulb Temperature Range Modifier Schedule Name
  ASHRAETau,                              ! Solar Model Indicator
  ,                                       ! Beam Solar Day Schedule Name
  ,                                       ! Diffuse Solar Day Schedule Name
  0.373,                                  ! ASHRAE Taub {dimensionless}
  2.559;                                  ! ASHRAE Taud {dimensionless}

OS:ComponentData,
  {47c43bfe-7592-4c5c-aeb6-83a90ce298a0}, ! Handle
  Component Data 1,                       ! Name
  {a0821b4c-bcab-45b3-9c2f-0915c77f59eb}, ! UUID
  {d67b4e7e-56fb-469f-8c17-8deba739d255}, ! Version UUID
  1366307130,                             ! Creation Timestamp
  1366307130,                             ! Version Timestamp
  {cd9b8427-6a38-4087-84ea-5a2e467c2acd}; ! Name of Object 1

