
OS:Version,
  {50f2f127-886e-4bd7-9e1e-17824e105ccc}, ! Handle
  0.9.3;                                  ! Version Identifier

OS:SizingPeriod:DesignDay,
  {3fa53b12-9139-4fe8-9c3f-218abaa1ab51}, ! Handle
  Pasco Ann Clg .4% Condns Enth=>MDB,     ! Name
  35.1,                                   ! Maximum Dry-Bulb Temperature {C}
  17.8,                                   ! Daily Dry-Bulb Temperature Range {deltaC}
  65500,                                  ! Humidity Indicating Conditions at Maximum Dry-Bulb {BasedOnField A3}
  99702,                                  ! Barometric Pressure {Pa}
  3.1,                                    ! Wind Speed {m/s}
  330,                                    ! Wind Direction {deg}
  0,                                      ! Sky Clearness
  0,                                      ! Rain Indicator
  0,                                      ! Snow Indicator
  21,                                     ! Day of Month
  7,                                      ! Month
  SummerDesignDay,                        ! Day Type
  0,                                      ! Daylight Saving Time Indicator
  Enthalpy,                               ! Humidity Indicating Type
  ,                                       ! Humidity Indicating Day Schedule Name
  DefaultMultipliers,                     ! Dry-Bulb Temperature Range Modifier Type
  ,                                       ! Dry-Bulb Temperature Range Modifier Schedule Name
  ASHRAETau,                              ! Solar Model Indicator
  ,                                       ! Beam Solar Day Schedule Name
  ,                                       ! Diffuse Solar Day Schedule Name
  0.398,                                  ! ASHRAE Taub {dimensionless}
  2.219;                                  ! ASHRAE Taud {dimensionless}

OS:ComponentData,
  {74c6d3dd-b59a-4839-8e95-0d14dcba7d72}, ! Handle
  Component Data 1,                       ! Name
  {5af4d622-33d7-4951-878f-222ed3fd3ab1}, ! UUID
  {ee1eb1b1-f711-4fae-8125-fe08895c965b}, ! Version UUID
  1366311321,                             ! Creation Timestamp
  1366311321,                             ! Version Timestamp
  {3fa53b12-9139-4fe8-9c3f-218abaa1ab51}; ! Name of Object 1

