
OS:Version,
  {254b1c5e-12c9-48fe-94de-8ee666893dc0}, ! Handle
  0.9.3;                                  ! Version Identifier

OS:SizingPeriod:DesignDay,
  {417187f9-47dc-435b-b226-1d51c913858b}, ! Handle
  Traverse City Ann Clg 1% Condns DB=>MWB, ! Name
  29.9,                                   ! Maximum Dry-Bulb Temperature {C}
  11.8,                                   ! Daily Dry-Bulb Temperature Range {deltaC}
  21.1,                                   ! Humidity Indicating Conditions at Maximum Dry-Bulb {BasedOnField A3}
  99063,                                  ! Barometric Pressure {Pa}
  5.1,                                    ! Wind Speed {m/s}
  230,                                    ! Wind Direction {deg}
  0,                                      ! Sky Clearness
  0,                                      ! Rain Indicator
  0,                                      ! Snow Indicator
  21,                                     ! Day of Month
  7,                                      ! Month
  SummerDesignDay,                        ! Day Type
  0,                                      ! Daylight Saving Time Indicator
  Wetbulb,                                ! Humidity Indicating Type
  ,                                       ! Humidity Indicating Day Schedule Name
  DefaultMultipliers,                     ! Dry-Bulb Temperature Range Modifier Type
  ,                                       ! Dry-Bulb Temperature Range Modifier Schedule Name
  ASHRAETau,                              ! Solar Model Indicator
  ,                                       ! Beam Solar Day Schedule Name
  ,                                       ! Diffuse Solar Day Schedule Name
  0.422,                                  ! ASHRAE Taub {dimensionless}
  2.177;                                  ! ASHRAE Taud {dimensionless}

OS:ComponentData,
  {c7dfa857-0129-4c64-814a-8d1133d74415}, ! Handle
  Component Data 1,                       ! Name
  {9e421c46-6eb8-4000-8dca-ac331db06332}, ! UUID
  {3c168eb1-2e16-45cd-b6a7-c2c1e9a2670e}, ! Version UUID
  1366308120,                             ! Creation Timestamp
  1366308120,                             ! Version Timestamp
  {417187f9-47dc-435b-b226-1d51c913858b}; ! Name of Object 1

