
OS:Version,
  {9b02eff4-fc90-4dc8-864d-9d468b2fe90e}, ! Handle
  0.9.3;                                  ! Version Identifier

OS:SizingPeriod:DesignDay,
  {936044dd-16c2-4625-a729-0e2d263b3bfd}, ! Handle
  Redwood Falls Muni Ann Clg 1% Condns DB=>MWB, ! Name
  31.5,                                   ! Maximum Dry-Bulb Temperature {C}
  11.4,                                   ! Daily Dry-Bulb Temperature Range {deltaC}
  22.6,                                   ! Humidity Indicating Conditions at Maximum Dry-Bulb {BasedOnField A3}
  97633,                                  ! Barometric Pressure {Pa}
  6.3,                                    ! Wind Speed {m/s}
  180,                                    ! Wind Direction {deg}
  0,                                      ! Sky Clearness
  0,                                      ! Rain Indicator
  0,                                      ! Snow Indicator
  21,                                     ! Day of Month
  7,                                      ! Month
  SummerDesignDay,                        ! Day Type
  0,                                      ! Daylight Saving Time Indicator
  Wetbulb,                                ! Humidity Indicating Type
  ,                                       ! Humidity Indicating Day Schedule Name
  DefaultMultipliers,                     ! Dry-Bulb Temperature Range Modifier Type
  ,                                       ! Dry-Bulb Temperature Range Modifier Schedule Name
  ASHRAETau,                              ! Solar Model Indicator
  ,                                       ! Beam Solar Day Schedule Name
  ,                                       ! Diffuse Solar Day Schedule Name
  0.402,                                  ! ASHRAE Taub {dimensionless}
  2.246;                                  ! ASHRAE Taud {dimensionless}

OS:ComponentData,
  {b8824238-1a43-474b-9dda-6be2baf32e43}, ! Handle
  Component Data 1,                       ! Name
  {5f8b7f50-e096-485e-8445-db704d305b56}, ! UUID
  {b4f291a5-2631-4f21-abc4-7287a52cee91}, ! Version UUID
  1366308381,                             ! Creation Timestamp
  1366308381,                             ! Version Timestamp
  {936044dd-16c2-4625-a729-0e2d263b3bfd}; ! Name of Object 1

