
OS:Version,
  {31663a30-87ce-4c55-a603-b26403679109}, ! Handle
  0.9.3;                                  ! Version Identifier

OS:SizingPeriod:DesignDay,
  {11acf4e0-e772-4b03-9c3a-5426e7e71e34}, ! Handle
  Sheridan County Arpt Ann Htg 99% Condns DB, ! Name
  -21.1,                                  ! Maximum Dry-Bulb Temperature {C}
  0,                                      ! Daily Dry-Bulb Temperature Range {deltaC}
  -21.1,                                  ! Humidity Indicating Conditions at Maximum Dry-Bulb {BasedOnField A3}
  87630,                                  ! Barometric Pressure {Pa}
  2,                                      ! Wind Speed {m/s}
  280,                                    ! Wind Direction {deg}
  0,                                      ! Sky Clearness
  0,                                      ! Rain Indicator
  0,                                      ! Snow Indicator
  21,                                     ! Day of Month
  12,                                     ! Month
  WinterDesignDay,                        ! Day Type
  0,                                      ! Daylight Saving Time Indicator
  Wetbulb,                                ! Humidity Indicating Type
  ,                                       ! Humidity Indicating Day Schedule Name
  DefaultMultipliers,                     ! Dry-Bulb Temperature Range Modifier Type
  ,                                       ! Dry-Bulb Temperature Range Modifier Schedule Name
  ASHRAEClearSky;                         ! Solar Model Indicator

OS:ComponentData,
  {66e72bcf-cfb3-4a95-b124-0d447981a523}, ! Handle
  Component Data 1,                       ! Name
  {fdfc6778-2b08-48d8-88ba-22f5461f0d7f}, ! UUID
  {fff8b46c-1920-4fa2-a5b7-6814d7c78cd1}, ! Version UUID
  1366311785,                             ! Creation Timestamp
  1366311785,                             ! Version Timestamp
  {11acf4e0-e772-4b03-9c3a-5426e7e71e34}; ! Name of Object 1

