
OS:Version,
  {c83aafaa-0c31-4525-acde-d3e011b75301}, ! Handle
  0.9.3;                                  ! Version Identifier

OS:SizingPeriod:DesignDay,
  {f7d7d302-6ddd-45ed-a947-b291b53a841d}, ! Handle
  SYRACUSE Ann Clg .4% Condns DP=>MDB,    ! Name
  26.9,                                   ! Maximum Dry-Bulb Temperature {C}
  10.8,                                   ! Daily Dry-Bulb Temperature Range {deltaC}
  22.5,                                   ! Humidity Indicating Conditions at Maximum Dry-Bulb {BasedOnField A3}
  99844,                                  ! Barometric Pressure {Pa}
  4.4,                                    ! Wind Speed {m/s}
  260,                                    ! Wind Direction {deg}
  0,                                      ! Sky Clearness
  0,                                      ! Rain Indicator
  0,                                      ! Snow Indicator
  21,                                     ! Day of Month
  7,                                      ! Month
  SummerDesignDay,                        ! Day Type
  0,                                      ! Daylight Saving Time Indicator
  Dewpoint,                               ! Humidity Indicating Type
  ,                                       ! Humidity Indicating Day Schedule Name
  DefaultMultipliers,                     ! Dry-Bulb Temperature Range Modifier Type
  ,                                       ! Dry-Bulb Temperature Range Modifier Schedule Name
  ASHRAETau,                              ! Solar Model Indicator
  ,                                       ! Beam Solar Day Schedule Name
  ,                                       ! Diffuse Solar Day Schedule Name
  0.47,                                   ! ASHRAE Taub {dimensionless}
  1.975;                                  ! ASHRAE Taud {dimensionless}

OS:ComponentData,
  {02c069c5-a888-446c-b9ea-82e29c82cefe}, ! Handle
  Component Data 1,                       ! Name
  {a8209811-b5f4-4542-894c-81076d5284b4}, ! UUID
  {a8ef78c0-1a7d-4f50-a3f6-7254719a60da}, ! Version UUID
  1366309740,                             ! Creation Timestamp
  1366309740,                             ! Version Timestamp
  {f7d7d302-6ddd-45ed-a947-b291b53a841d}; ! Name of Object 1

