
OS:Version,
  {1628492b-cc4b-4bc9-a54a-7c43b09aeb77}, ! Handle
  0.9.3;                                  ! Version Identifier

OS:SizingPeriod:DesignDay,
  {952c7966-ef4f-4c73-af5a-28bd94144b67}, ! Handle
  William R Fairchild Ann Clg 2% Condns DB=>MWB, ! Name
  21.7,                                   ! Maximum Dry-Bulb Temperature {C}
  9.1,                                    ! Daily Dry-Bulb Temperature Range {deltaC}
  15.6,                                   ! Humidity Indicating Conditions at Maximum Dry-Bulb {BasedOnField A3}
  100237,                                 ! Barometric Pressure {Pa}
  2.1,                                    ! Wind Speed {m/s}
  90,                                     ! Wind Direction {deg}
  0,                                      ! Sky Clearness
  0,                                      ! Rain Indicator
  0,                                      ! Snow Indicator
  21,                                     ! Day of Month
  8,                                      ! Month
  SummerDesignDay,                        ! Day Type
  0,                                      ! Daylight Saving Time Indicator
  Wetbulb,                                ! Humidity Indicating Type
  ,                                       ! Humidity Indicating Day Schedule Name
  DefaultMultipliers,                     ! Dry-Bulb Temperature Range Modifier Type
  ,                                       ! Dry-Bulb Temperature Range Modifier Schedule Name
  ASHRAETau,                              ! Solar Model Indicator
  ,                                       ! Beam Solar Day Schedule Name
  ,                                       ! Diffuse Solar Day Schedule Name
  0.364,                                  ! ASHRAE Taub {dimensionless}
  2.489;                                  ! ASHRAE Taud {dimensionless}

OS:ComponentData,
  {a71c7758-95e0-4944-a688-74bce2373477}, ! Handle
  Component Data 1,                       ! Name
  {f18005e1-1ad9-4e89-a867-1ff88153aa1b}, ! UUID
  {28a8bda1-f615-478e-b444-80775f550179}, ! Version UUID
  1366311325,                             ! Creation Timestamp
  1366311325,                             ! Version Timestamp
  {952c7966-ef4f-4c73-af5a-28bd94144b67}; ! Name of Object 1

