
OS:Version,
  {f9f95d92-c880-4fd7-b9a4-4160970d39ae}, ! Handle
  0.9.3;                                  ! Version Identifier

OS:SizingPeriod:DesignDay,
  {3c2bdd49-ef73-4a9b-805a-02dda4639878}, ! Handle
  Port Heiden Ann Clg 2% Condns DP=>MDB,  ! Name
  13.4,                                   ! Maximum Dry-Bulb Temperature {C}
  5.4,                                    ! Daily Dry-Bulb Temperature Range {deltaC}
  10.3,                                   ! Humidity Indicating Conditions at Maximum Dry-Bulb {BasedOnField A3}
  100977,                                 ! Barometric Pressure {Pa}
  7.3,                                    ! Wind Speed {m/s}
  150,                                    ! Wind Direction {deg}
  0,                                      ! Sky Clearness
  0,                                      ! Rain Indicator
  0,                                      ! Snow Indicator
  21,                                     ! Day of Month
  8,                                      ! Month
  SummerDesignDay,                        ! Day Type
  0,                                      ! Daylight Saving Time Indicator
  Dewpoint,                               ! Humidity Indicating Type
  ,                                       ! Humidity Indicating Day Schedule Name
  DefaultMultipliers,                     ! Dry-Bulb Temperature Range Modifier Type
  ,                                       ! Dry-Bulb Temperature Range Modifier Schedule Name
  ASHRAETau,                              ! Solar Model Indicator
  ,                                       ! Beam Solar Day Schedule Name
  ,                                       ! Diffuse Solar Day Schedule Name
  0.375,                                  ! ASHRAE Taub {dimensionless}
  2.3;                                    ! ASHRAE Taud {dimensionless}

OS:ComponentData,
  {2ff472ff-3094-4137-86e9-fab3436106a1}, ! Handle
  Component Data 1,                       ! Name
  {6e909a2a-ba4b-48c0-a3d4-1f70f0ac115a}, ! UUID
  {49b5ce00-27ba-47be-ae66-8b5a8e21f510}, ! Version UUID
  1366305506,                             ! Creation Timestamp
  1366305506,                             ! Version Timestamp
  {3c2bdd49-ef73-4a9b-805a-02dda4639878}; ! Name of Object 1

