
OS:Version,
  {17296d7b-5b9d-4762-819c-2da2b9421bf4}, ! Handle
  0.9.3;                                  ! Version Identifier

OS:SizingPeriod:DesignDay,
  {f014532a-3ade-4676-b36d-48cebb0f2438}, ! Handle
  South Bend Ann Clg 2% Condns WB=>MDB,   ! Name
  27.7,                                   ! Maximum Dry-Bulb Temperature {C}
  10.4,                                   ! Daily Dry-Bulb Temperature Range {deltaC}
  23.4,                                   ! Humidity Indicating Conditions at Maximum Dry-Bulb {BasedOnField A3}
  98522,                                  ! Barometric Pressure {Pa}
  5.2,                                    ! Wind Speed {m/s}
  220,                                    ! Wind Direction {deg}
  0,                                      ! Sky Clearness
  0,                                      ! Rain Indicator
  0,                                      ! Snow Indicator
  21,                                     ! Day of Month
  7,                                      ! Month
  SummerDesignDay,                        ! Day Type
  0,                                      ! Daylight Saving Time Indicator
  Wetbulb,                                ! Humidity Indicating Type
  ,                                       ! Humidity Indicating Day Schedule Name
  DefaultMultipliers,                     ! Dry-Bulb Temperature Range Modifier Type
  ,                                       ! Dry-Bulb Temperature Range Modifier Schedule Name
  ASHRAETau,                              ! Solar Model Indicator
  ,                                       ! Beam Solar Day Schedule Name
  ,                                       ! Diffuse Solar Day Schedule Name
  0.433,                                  ! ASHRAE Taub {dimensionless}
  2.144;                                  ! ASHRAE Taud {dimensionless}

OS:ComponentData,
  {7700dfff-276c-4a45-9c1c-36001c7bc415}, ! Handle
  Component Data 1,                       ! Name
  {ff39e221-bac3-45e4-be17-9a759a5e1c77}, ! UUID
  {e28d6f68-f172-4ed5-84d6-63ef2f305913}, ! Version UUID
  1366307480,                             ! Creation Timestamp
  1366307480,                             ! Version Timestamp
  {f014532a-3ade-4676-b36d-48cebb0f2438}; ! Name of Object 1

