
OS:Version,
  {c2907d0a-571d-466d-867e-232fc6635af5}, ! Handle
  0.9.3;                                  ! Version Identifier

OS:SizingPeriod:DesignDay,
  {68c0ddfb-353c-41c9-bca4-c52b72191f02}, ! Handle
  Manhattan Rgnl Ann Clg .4% Condns DB=>MWB, ! Name
  37.7,                                   ! Maximum Dry-Bulb Temperature {C}
  12.8,                                   ! Daily Dry-Bulb Temperature Range {deltaC}
  24.2,                                   ! Humidity Indicating Conditions at Maximum Dry-Bulb {BasedOnField A3}
  97423,                                  ! Barometric Pressure {Pa}
  5.3,                                    ! Wind Speed {m/s}
  200,                                    ! Wind Direction {deg}
  0,                                      ! Sky Clearness
  0,                                      ! Rain Indicator
  0,                                      ! Snow Indicator
  21,                                     ! Day of Month
  7,                                      ! Month
  SummerDesignDay,                        ! Day Type
  0,                                      ! Daylight Saving Time Indicator
  Wetbulb,                                ! Humidity Indicating Type
  ,                                       ! Humidity Indicating Day Schedule Name
  DefaultMultipliers,                     ! Dry-Bulb Temperature Range Modifier Type
  ,                                       ! Dry-Bulb Temperature Range Modifier Schedule Name
  ASHRAETau,                              ! Solar Model Indicator
  ,                                       ! Beam Solar Day Schedule Name
  ,                                       ! Diffuse Solar Day Schedule Name
  0.424,                                  ! ASHRAE Taub {dimensionless}
  2.192;                                  ! ASHRAE Taud {dimensionless}

OS:ComponentData,
  {ce6e41e3-0cd2-4275-b2b9-92016f0ee660}, ! Handle
  Component Data 1,                       ! Name
  {ed2c0628-d69f-4e66-830e-6f16fc37d07b}, ! UUID
  {2a211c5b-0fe3-4f28-a6ba-9c9be0586816}, ! Version UUID
  1366307558,                             ! Creation Timestamp
  1366307558,                             ! Version Timestamp
  {68c0ddfb-353c-41c9-bca4-c52b72191f02}; ! Name of Object 1

