
OS:Version,
  {c7f242d1-7e5d-4d53-b009-124eaaf5cb05}, ! Handle
  0.9.3;                                  ! Version Identifier

OS:SizingPeriod:DesignDay,
  {a71fe896-b10b-4193-8f23-b21e24c51fd2}, ! Handle
  VICTORIA Ann Clg .4% Condns Enth=>MDB,  ! Name
  30.8,                                   ! Maximum Dry-Bulb Temperature {C}
  10.6,                                   ! Daily Dry-Bulb Temperature Range {deltaC}
  83500,                                  ! Humidity Indicating Conditions at Maximum Dry-Bulb {BasedOnField A3}
  100941,                                 ! Barometric Pressure {Pa}
  4.9,                                    ! Wind Speed {m/s}
  170,                                    ! Wind Direction {deg}
  0,                                      ! Sky Clearness
  0,                                      ! Rain Indicator
  0,                                      ! Snow Indicator
  21,                                     ! Day of Month
  8,                                      ! Month
  SummerDesignDay,                        ! Day Type
  0,                                      ! Daylight Saving Time Indicator
  Enthalpy,                               ! Humidity Indicating Type
  ,                                       ! Humidity Indicating Day Schedule Name
  DefaultMultipliers,                     ! Dry-Bulb Temperature Range Modifier Type
  ,                                       ! Dry-Bulb Temperature Range Modifier Schedule Name
  ASHRAETau,                              ! Solar Model Indicator
  ,                                       ! Beam Solar Day Schedule Name
  ,                                       ! Diffuse Solar Day Schedule Name
  0.474,                                  ! ASHRAE Taub {dimensionless}
  2.062;                                  ! ASHRAE Taud {dimensionless}

OS:ComponentData,
  {8ef93a31-6220-4389-b14e-fd6a0b3373eb}, ! Handle
  Component Data 1,                       ! Name
  {2dd64424-e67e-4e2b-b3c5-68206fbe9d25}, ! UUID
  {c433f5a2-ce0d-4fe2-a237-309d5c02b18e}, ! Version UUID
  1366310909,                             ! Creation Timestamp
  1366310909,                             ! Version Timestamp
  {a71fe896-b10b-4193-8f23-b21e24c51fd2}; ! Name of Object 1

