
OS:Version,
  {7006c882-9a8c-45ad-a47e-0c33909ed235}, ! Handle
  0.9.3;                                  ! Version Identifier

OS:SizingPeriod:DesignDay,
  {2ee3a39f-5261-49f8-b0e3-d12a8a97d318}, ! Handle
  MANSFIELD Ann Htg 99.6% Condns DB,      ! Name
  -17.7,                                  ! Maximum Dry-Bulb Temperature {C}
  0,                                      ! Daily Dry-Bulb Temperature Range {deltaC}
  -17.7,                                  ! Humidity Indicating Conditions at Maximum Dry-Bulb {BasedOnField A3}
  96669,                                  ! Barometric Pressure {Pa}
  4.9,                                    ! Wind Speed {m/s}
  250,                                    ! Wind Direction {deg}
  0,                                      ! Sky Clearness
  0,                                      ! Rain Indicator
  0,                                      ! Snow Indicator
  21,                                     ! Day of Month
  1,                                      ! Month
  WinterDesignDay,                        ! Day Type
  0,                                      ! Daylight Saving Time Indicator
  Wetbulb,                                ! Humidity Indicating Type
  ,                                       ! Humidity Indicating Day Schedule Name
  DefaultMultipliers,                     ! Dry-Bulb Temperature Range Modifier Type
  ,                                       ! Dry-Bulb Temperature Range Modifier Schedule Name
  ASHRAEClearSky;                         ! Solar Model Indicator

OS:ComponentData,
  {589fecdd-0374-4bfd-9695-daa581218ec4}, ! Handle
  Component Data 1,                       ! Name
  {a71e54f5-4d2c-4ac1-99e8-3635c3da1739}, ! UUID
  {537f645a-2f0f-44ab-b74f-be56fa7d7a88}, ! Version UUID
  1366309834,                             ! Creation Timestamp
  1366309834,                             ! Version Timestamp
  {2ee3a39f-5261-49f8-b0e3-d12a8a97d318}; ! Name of Object 1

