
OS:Version,
  {355803a0-b16c-4a9d-b9d0-b48bbd175892}, ! Handle
  0.9.3;                                  ! Version Identifier

OS:SizingPeriod:DesignDay,
  {256f028e-f739-4760-a6a4-5bbe8441ed3d}, ! Handle
  Yakima Air Terminal Ann Clg 2% Condns Enth=>MDB, ! Name
  29.9,                                   ! Maximum Dry-Bulb Temperature {C}
  17.9,                                   ! Daily Dry-Bulb Temperature Range {deltaC}
  53000,                                  ! Humidity Indicating Conditions at Maximum Dry-Bulb {BasedOnField A3}
  97493,                                  ! Barometric Pressure {Pa}
  2.7,                                    ! Wind Speed {m/s}
  100,                                    ! Wind Direction {deg}
  0,                                      ! Sky Clearness
  0,                                      ! Rain Indicator
  0,                                      ! Snow Indicator
  21,                                     ! Day of Month
  7,                                      ! Month
  SummerDesignDay,                        ! Day Type
  0,                                      ! Daylight Saving Time Indicator
  Enthalpy,                               ! Humidity Indicating Type
  ,                                       ! Humidity Indicating Day Schedule Name
  DefaultMultipliers,                     ! Dry-Bulb Temperature Range Modifier Type
  ,                                       ! Dry-Bulb Temperature Range Modifier Schedule Name
  ASHRAETau,                              ! Solar Model Indicator
  ,                                       ! Beam Solar Day Schedule Name
  ,                                       ! Diffuse Solar Day Schedule Name
  0.395,                                  ! ASHRAE Taub {dimensionless}
  2.249;                                  ! ASHRAE Taud {dimensionless}

OS:ComponentData,
  {ba38682d-42e4-4a14-b04e-c4f7c1be8b8a}, ! Handle
  Component Data 1,                       ! Name
  {7a0c1f74-8f06-434f-b576-14cb00ea776a}, ! UUID
  {f5a10a6f-5378-4072-bcd3-3bded9a06001}, ! Version UUID
  1366311454,                             ! Creation Timestamp
  1366311454,                             ! Version Timestamp
  {256f028e-f739-4760-a6a4-5bbe8441ed3d}; ! Name of Object 1

