
OS:Version,
  {e5173ecd-7f6c-4cb8-8480-bfb561e01951}, ! Handle
  0.9.3;                                  ! Version Identifier

OS:SizingPeriod:DesignDay,
  {47d6f336-f993-4391-9483-43ad7a8aa3f9}, ! Handle
  SHREVEPORT Ann Clg 2% Condns Enth=>MDB, ! Name
  31.9,                                   ! Maximum Dry-Bulb Temperature {C}
  10.7,                                   ! Daily Dry-Bulb Temperature Range {deltaC}
  78900,                                  ! Humidity Indicating Conditions at Maximum Dry-Bulb {BasedOnField A3}
  100380,                                 ! Barometric Pressure {Pa}
  3.3,                                    ! Wind Speed {m/s}
  180,                                    ! Wind Direction {deg}
  0,                                      ! Sky Clearness
  0,                                      ! Rain Indicator
  0,                                      ! Snow Indicator
  21,                                     ! Day of Month
  7,                                      ! Month
  SummerDesignDay,                        ! Day Type
  0,                                      ! Daylight Saving Time Indicator
  Enthalpy,                               ! Humidity Indicating Type
  ,                                       ! Humidity Indicating Day Schedule Name
  DefaultMultipliers,                     ! Dry-Bulb Temperature Range Modifier Type
  ,                                       ! Dry-Bulb Temperature Range Modifier Schedule Name
  ASHRAETau,                              ! Solar Model Indicator
  ,                                       ! Beam Solar Day Schedule Name
  ,                                       ! Diffuse Solar Day Schedule Name
  0.489,                                  ! ASHRAE Taub {dimensionless}
  2.014;                                  ! ASHRAE Taud {dimensionless}

OS:ComponentData,
  {6c480456-0eb3-4cb3-bed9-bdd220412158}, ! Handle
  Component Data 1,                       ! Name
  {bc5bb4ba-2b1a-4057-a334-809f46e3256c}, ! UUID
  {4b7f4711-be34-434f-9bdf-c22c7967ea71}, ! Version UUID
  1366307763,                             ! Creation Timestamp
  1366307763,                             ! Version Timestamp
  {47d6f336-f993-4391-9483-43ad7a8aa3f9}; ! Name of Object 1

