
OS:Version,
  {7e1d673e-60eb-42e0-8f9e-d359d06e68bf}, ! Handle
  0.9.3;                                  ! Version Identifier

OS:SizingPeriod:DesignDay,
  {36db564b-a850-4a9d-af46-251d1ddc48f3}, ! Handle
  Northern Aroostook Ann Clg 2% Condns DP=>MDB, ! Name
  20.7,                                   ! Maximum Dry-Bulb Temperature {C}
  9.3,                                    ! Daily Dry-Bulb Temperature Range {deltaC}
  17.7,                                   ! Humidity Indicating Conditions at Maximum Dry-Bulb {BasedOnField A3}
  97668,                                  ! Barometric Pressure {Pa}
  4.3,                                    ! Wind Speed {m/s}
  230,                                    ! Wind Direction {deg}
  0,                                      ! Sky Clearness
  0,                                      ! Rain Indicator
  0,                                      ! Snow Indicator
  21,                                     ! Day of Month
  7,                                      ! Month
  SummerDesignDay,                        ! Day Type
  0,                                      ! Daylight Saving Time Indicator
  Dewpoint,                               ! Humidity Indicating Type
  ,                                       ! Humidity Indicating Day Schedule Name
  DefaultMultipliers,                     ! Dry-Bulb Temperature Range Modifier Type
  ,                                       ! Dry-Bulb Temperature Range Modifier Schedule Name
  ASHRAETau,                              ! Solar Model Indicator
  ,                                       ! Beam Solar Day Schedule Name
  ,                                       ! Diffuse Solar Day Schedule Name
  0.416,                                  ! ASHRAE Taub {dimensionless}
  2.144;                                  ! ASHRAE Taud {dimensionless}

OS:ComponentData,
  {dc651201-d7dc-4000-843f-af25adf17659}, ! Handle
  Component Data 1,                       ! Name
  {8d16d9f6-a0e1-43b4-8f02-1d0527c0611f}, ! UUID
  {a6cfe865-a5c9-461a-9c7b-23ef9cfa9ac9}, ! Version UUID
  1366307899,                             ! Creation Timestamp
  1366307899,                             ! Version Timestamp
  {36db564b-a850-4a9d-af46-251d1ddc48f3}; ! Name of Object 1

