
OS:Version,
  {b4cd1424-0ffd-40b7-bca2-f8a3db12732a}, ! Handle
  0.9.3;                                  ! Version Identifier

OS:SizingPeriod:DesignDay,
  {86f00204-92fb-4c9b-954c-8e5b4a16839d}, ! Handle
  Sterling/Washington Du Ann Clg 1% Condns DP=>MDB, ! Name
  27.1,                                   ! Maximum Dry-Bulb Temperature {C}
  11.4,                                   ! Daily Dry-Bulb Temperature Range {deltaC}
  23,                                     ! Humidity Indicating Conditions at Maximum Dry-Bulb {BasedOnField A3}
  100153,                                 ! Barometric Pressure {Pa}
  4,                                      ! Wind Speed {m/s}
  290,                                    ! Wind Direction {deg}
  0,                                      ! Sky Clearness
  0,                                      ! Rain Indicator
  0,                                      ! Snow Indicator
  21,                                     ! Day of Month
  7,                                      ! Month
  SummerDesignDay,                        ! Day Type
  0,                                      ! Daylight Saving Time Indicator
  Dewpoint,                               ! Humidity Indicating Type
  ,                                       ! Humidity Indicating Day Schedule Name
  DefaultMultipliers,                     ! Dry-Bulb Temperature Range Modifier Type
  ,                                       ! Dry-Bulb Temperature Range Modifier Schedule Name
  ASHRAETau,                              ! Solar Model Indicator
  ,                                       ! Beam Solar Day Schedule Name
  ,                                       ! Diffuse Solar Day Schedule Name
  0.544,                                  ! ASHRAE Taub {dimensionless}
  1.787;                                  ! ASHRAE Taud {dimensionless}

OS:ComponentData,
  {0fb521ad-73a4-4529-81ba-14b48a4ab004}, ! Handle
  Component Data 1,                       ! Name
  {b00d76a7-7e80-4bf8-a162-204d56448e5d}, ! UUID
  {4b9198e6-cbc9-4a85-a8ef-b0c031aa0b37}, ! Version UUID
  1366311213,                             ! Creation Timestamp
  1366311213,                             ! Version Timestamp
  {86f00204-92fb-4c9b-954c-8e5b4a16839d}; ! Name of Object 1

