
OS:Version,
  {c12f5369-9412-4984-bd1c-6e4d1975914f}, ! Handle
  0.9.3;                                  ! Version Identifier

OS:SizingPeriod:DesignDay,
  {973745bc-d6cd-4758-b32b-1d2e18724153}, ! Handle
  Shreveport Ann Hum_n 99.6% Condns DP=>MCDB, ! Name
  -0.6,                                   ! Maximum Dry-Bulb Temperature {C}
  0,                                      ! Daily Dry-Bulb Temperature Range {deltaC}
  -12.6,                                  ! Humidity Indicating Conditions at Maximum Dry-Bulb {BasedOnField A3}
  100380,                                 ! Barometric Pressure {Pa}
  3.4,                                    ! Wind Speed {m/s}
  350,                                    ! Wind Direction {deg}
  0,                                      ! Sky Clearness
  0,                                      ! Rain Indicator
  0,                                      ! Snow Indicator
  21,                                     ! Day of Month
  1,                                      ! Month
  WinterDesignDay,                        ! Day Type
  0,                                      ! Daylight Saving Time Indicator
  Dewpoint,                               ! Humidity Indicating Type
  ,                                       ! Humidity Indicating Day Schedule Name
  DefaultMultipliers,                     ! Dry-Bulb Temperature Range Modifier Type
  ,                                       ! Dry-Bulb Temperature Range Modifier Schedule Name
  ASHRAEClearSky;                         ! Solar Model Indicator

OS:ComponentData,
  {fcaf96e1-6954-48fb-9cc6-7c5770f7ddf0}, ! Handle
  Component Data 1,                       ! Name
  {2d95b511-14f1-4b5f-9afb-c6fbc56ddf24}, ! UUID
  {2b5696e0-0333-4fba-86a3-394ec4306e02}, ! Version UUID
  1366307769,                             ! Creation Timestamp
  1366307769,                             ! Version Timestamp
  {973745bc-d6cd-4758-b32b-1d2e18724153}; ! Name of Object 1

