
OS:Version,
  {3ffd5ac6-1637-438f-a139-d3d36ce1bc76}, ! Handle
  0.9.3;                                  ! Version Identifier

OS:SizingPeriod:DesignDay,
  {d5baa16a-9ab1-49c1-9a82-30e4233a7278}, ! Handle
  SAN_ANTONIO Ann Hum_n 99% Condns DP=>MCDB, ! Name
  5.7,                                    ! Maximum Dry-Bulb Temperature {C}
  0,                                      ! Daily Dry-Bulb Temperature Range {deltaC}
  -8.6,                                   ! Humidity Indicating Conditions at Maximum Dry-Bulb {BasedOnField A3}
  98451,                                  ! Barometric Pressure {Pa}
  3.6,                                    ! Wind Speed {m/s}
  340,                                    ! Wind Direction {deg}
  0,                                      ! Sky Clearness
  0,                                      ! Rain Indicator
  0,                                      ! Snow Indicator
  21,                                     ! Day of Month
  1,                                      ! Month
  WinterDesignDay,                        ! Day Type
  0,                                      ! Daylight Saving Time Indicator
  Dewpoint,                               ! Humidity Indicating Type
  ,                                       ! Humidity Indicating Day Schedule Name
  DefaultMultipliers,                     ! Dry-Bulb Temperature Range Modifier Type
  ,                                       ! Dry-Bulb Temperature Range Modifier Schedule Name
  ASHRAEClearSky;                         ! Solar Model Indicator

OS:ComponentData,
  {a5f71189-2a88-4827-b560-28c9f4979e12}, ! Handle
  Component Data 1,                       ! Name
  {5a7c31e5-001c-4f45-a4ae-a82cfb67a268}, ! UUID
  {77222615-763f-4881-845d-ff22fbcd5720}, ! Version UUID
  1366310890,                             ! Creation Timestamp
  1366310890,                             ! Version Timestamp
  {d5baa16a-9ab1-49c1-9a82-30e4233a7278}; ! Name of Object 1

