
OS:Version,
  {09910b09-b513-430b-ad93-0a06fc4f10e2}, ! Handle
  0.9.3;                                  ! Version Identifier

OS:SizingPeriod:DesignDay,
  {9fbed8f8-cba4-41bd-97f1-393ded7e1c6c}, ! Handle
  Marshall Ryan Awos Ann Clg 2% Condns Enth=>MDB, ! Name
  27.2,                                   ! Maximum Dry-Bulb Temperature {C}
  10.2,                                   ! Daily Dry-Bulb Temperature Range {deltaC}
  66700,                                  ! Humidity Indicating Conditions at Maximum Dry-Bulb {BasedOnField A3}
  97086,                                  ! Barometric Pressure {Pa}
  7.2,                                    ! Wind Speed {m/s}
  200,                                    ! Wind Direction {deg}
  0,                                      ! Sky Clearness
  0,                                      ! Rain Indicator
  0,                                      ! Snow Indicator
  21,                                     ! Day of Month
  7,                                      ! Month
  SummerDesignDay,                        ! Day Type
  0,                                      ! Daylight Saving Time Indicator
  Enthalpy,                               ! Humidity Indicating Type
  ,                                       ! Humidity Indicating Day Schedule Name
  DefaultMultipliers,                     ! Dry-Bulb Temperature Range Modifier Type
  ,                                       ! Dry-Bulb Temperature Range Modifier Schedule Name
  ASHRAETau,                              ! Solar Model Indicator
  ,                                       ! Beam Solar Day Schedule Name
  ,                                       ! Diffuse Solar Day Schedule Name
  0.398,                                  ! ASHRAE Taub {dimensionless}
  2.26;                                   ! ASHRAE Taud {dimensionless}

OS:ComponentData,
  {b01fbfad-25d6-4fe8-93de-ad5109c0e023}, ! Handle
  Component Data 1,                       ! Name
  {5da769e4-a253-4b73-84ed-2dd26a91b22c}, ! UUID
  {0f85bc62-b6c9-42f1-97e2-ecdb90926b3d}, ! Version UUID
  1366308301,                             ! Creation Timestamp
  1366308301,                             ! Version Timestamp
  {9fbed8f8-cba4-41bd-97f1-393ded7e1c6c}; ! Name of Object 1

