
OS:Version,
  {d1109087-0e0e-491a-a9ec-192268551e13}, ! Handle
  0.9.3;                                  ! Version Identifier

OS:SizingPeriod:DesignDay,
  {41013804-e007-49cf-9877-16866ffb8160}, ! Handle
  Ukiah Municipal Ap Ann Clg 1% Condns DB=>MWB, ! Name
  36.1,                                   ! Maximum Dry-Bulb Temperature {C}
  19.5,                                   ! Daily Dry-Bulb Temperature Range {deltaC}
  19.9,                                   ! Humidity Indicating Conditions at Maximum Dry-Bulb {BasedOnField A3}
  99075,                                  ! Barometric Pressure {Pa}
  3.5,                                    ! Wind Speed {m/s}
  240,                                    ! Wind Direction {deg}
  0,                                      ! Sky Clearness
  0,                                      ! Rain Indicator
  0,                                      ! Snow Indicator
  21,                                     ! Day of Month
  7,                                      ! Month
  SummerDesignDay,                        ! Day Type
  0,                                      ! Daylight Saving Time Indicator
  Wetbulb,                                ! Humidity Indicating Type
  ,                                       ! Humidity Indicating Day Schedule Name
  DefaultMultipliers,                     ! Dry-Bulb Temperature Range Modifier Type
  ,                                       ! Dry-Bulb Temperature Range Modifier Schedule Name
  ASHRAETau,                              ! Solar Model Indicator
  ,                                       ! Beam Solar Day Schedule Name
  ,                                       ! Diffuse Solar Day Schedule Name
  0.352,                                  ! ASHRAE Taub {dimensionless}
  2.545;                                  ! ASHRAE Taud {dimensionless}

