
OS:Version,
  {5201d144-af47-46b8-b3c4-1842aa153767}, ! Handle
  0.9.3;                                  ! Version Identifier

OS:SizingPeriod:DesignDay,
  {af2919bb-c0d2-44e7-aa36-4426f7c3bbf3}, ! Handle
  Wilmington New Castle Cnty Ap Ann Clg .4% Condns WB=>MDB, ! Name
  30.7,                                   ! Maximum Dry-Bulb Temperature {C}
  9.5,                                    ! Daily Dry-Bulb Temperature Range {deltaC}
  25.6,                                   ! Humidity Indicating Conditions at Maximum Dry-Bulb {BasedOnField A3}
  101049,                                 ! Barometric Pressure {Pa}
  4.6,                                    ! Wind Speed {m/s}
  240,                                    ! Wind Direction {deg}
  0,                                      ! Sky Clearness
  0,                                      ! Rain Indicator
  0,                                      ! Snow Indicator
  21,                                     ! Day of Month
  7,                                      ! Month
  SummerDesignDay,                        ! Day Type
  0,                                      ! Daylight Saving Time Indicator
  Wetbulb,                                ! Humidity Indicating Type
  ,                                       ! Humidity Indicating Day Schedule Name
  DefaultMultipliers,                     ! Dry-Bulb Temperature Range Modifier Type
  ,                                       ! Dry-Bulb Temperature Range Modifier Schedule Name
  ASHRAETau,                              ! Solar Model Indicator
  ,                                       ! Beam Solar Day Schedule Name
  ,                                       ! Diffuse Solar Day Schedule Name
  0.557,                                  ! ASHRAE Taub {dimensionless}
  1.755;                                  ! ASHRAE Taud {dimensionless}

OS:ComponentData,
  {4ea50ba3-26d5-4182-8c6e-f7644b647a11}, ! Handle
  Component Data 1,                       ! Name
  {9d99ba30-0bf8-4f54-bbca-4bc4a963c4d7}, ! UUID
  {bf900607-5940-4758-a30e-9a4516b4b2a1}, ! Version UUID
  1366306776,                             ! Creation Timestamp
  1366306776,                             ! Version Timestamp
  {af2919bb-c0d2-44e7-aa36-4426f7c3bbf3}; ! Name of Object 1

