
OS:Version,
  {c864f719-5c91-46ee-8a4c-6597d68a6fff}, ! Handle
  0.9.3;                                  ! Version Identifier

OS:SizingPeriod:DesignDay,
  {4fe41686-8b86-4f1e-93dc-fd7ded699594}, ! Handle
  RAPID_CITY Ann Htg 99.6% Condns DB,     ! Name
  -23.6,                                  ! Maximum Dry-Bulb Temperature {C}
  0,                                      ! Daily Dry-Bulb Temperature Range {deltaC}
  -23.6,                                  ! Humidity Indicating Conditions at Maximum Dry-Bulb {BasedOnField A3}
  90246,                                  ! Barometric Pressure {Pa}
  3.6,                                    ! Wind Speed {m/s}
  0,                                      ! Wind Direction {deg}
  0,                                      ! Sky Clearness
  0,                                      ! Rain Indicator
  0,                                      ! Snow Indicator
  21,                                     ! Day of Month
  1,                                      ! Month
  WinterDesignDay,                        ! Day Type
  0,                                      ! Daylight Saving Time Indicator
  Wetbulb,                                ! Humidity Indicating Type
  ,                                       ! Humidity Indicating Day Schedule Name
  DefaultMultipliers,                     ! Dry-Bulb Temperature Range Modifier Type
  ,                                       ! Dry-Bulb Temperature Range Modifier Schedule Name
  ASHRAEClearSky;                         ! Solar Model Indicator

OS:ComponentData,
  {45dfc431-1a9f-4366-b341-52d855fd8a59}, ! Handle
  Component Data 1,                       ! Name
  {7109ca60-d658-4fce-8685-eacc84671412}, ! UUID
  {e4ded8e9-b337-43a4-8b50-9639b3e0f1d1}, ! Version UUID
  1366310439,                             ! Creation Timestamp
  1366310439,                             ! Version Timestamp
  {4fe41686-8b86-4f1e-93dc-fd7ded699594}; ! Name of Object 1

