
OS:Version,
  {db3ec86d-5a78-4a83-af1f-c4d3111e9c16}, ! Handle
  0.9.3;                                  ! Version Identifier

OS:SizingPeriod:DesignDay,
  {bfc0c3a1-11c8-4d1d-938d-bab49743805c}, ! Handle
  Spokane/Fairchild AFB Ann Clg 1% Condns DP=>MDB, ! Name
  19.9,                                   ! Maximum Dry-Bulb Temperature {C}
  14.6,                                   ! Daily Dry-Bulb Temperature Range {deltaC}
  13.3,                                   ! Humidity Indicating Conditions at Maximum Dry-Bulb {BasedOnField A3}
  92634,                                  ! Barometric Pressure {Pa}
  4.1,                                    ! Wind Speed {m/s}
  240,                                    ! Wind Direction {deg}
  0,                                      ! Sky Clearness
  0,                                      ! Rain Indicator
  0,                                      ! Snow Indicator
  21,                                     ! Day of Month
  7,                                      ! Month
  SummerDesignDay,                        ! Day Type
  0,                                      ! Daylight Saving Time Indicator
  Dewpoint,                               ! Humidity Indicating Type
  ,                                       ! Humidity Indicating Day Schedule Name
  DefaultMultipliers,                     ! Dry-Bulb Temperature Range Modifier Type
  ,                                       ! Dry-Bulb Temperature Range Modifier Schedule Name
  ASHRAETau,                              ! Solar Model Indicator
  ,                                       ! Beam Solar Day Schedule Name
  ,                                       ! Diffuse Solar Day Schedule Name
  0.354,                                  ! ASHRAE Taub {dimensionless}
  2.385;                                  ! ASHRAE Taud {dimensionless}

OS:ComponentData,
  {9eeeeaef-8acb-46b0-9abe-dec68c9b691c}, ! Handle
  Component Data 1,                       ! Name
  {759a88a4-c088-4f48-968c-137e92189ce5}, ! UUID
  {5ba26024-2c14-4653-b6e5-5a31c1ecddd0}, ! Version UUID
  1366311391,                             ! Creation Timestamp
  1366311391,                             ! Version Timestamp
  {bfc0c3a1-11c8-4d1d-938d-bab49743805c}; ! Name of Object 1

