
OS:Version,
  {a0253560-bbae-4fc9-9298-5ce27265ed02}, ! Handle
  0.9.3;                                  ! Version Identifier

OS:SizingPeriod:DesignDay,
  {b4781cab-a8aa-44f7-a0ae-c40aec966a64}, ! Handle
  SIOUX_FALLS Ann Clg 2% Condns WB=>MDB,  ! Name
  28.8,                                   ! Maximum Dry-Bulb Temperature {C}
  11.5,                                   ! Daily Dry-Bulb Temperature Range {deltaC}
  23.3,                                   ! Humidity Indicating Conditions at Maximum Dry-Bulb {BasedOnField A3}
  96207,                                  ! Barometric Pressure {Pa}
  6.5,                                    ! Wind Speed {m/s}
  180,                                    ! Wind Direction {deg}
  0,                                      ! Sky Clearness
  0,                                      ! Rain Indicator
  0,                                      ! Snow Indicator
  21,                                     ! Day of Month
  7,                                      ! Month
  SummerDesignDay,                        ! Day Type
  0,                                      ! Daylight Saving Time Indicator
  Wetbulb,                                ! Humidity Indicating Type
  ,                                       ! Humidity Indicating Day Schedule Name
  DefaultMultipliers,                     ! Dry-Bulb Temperature Range Modifier Type
  ,                                       ! Dry-Bulb Temperature Range Modifier Schedule Name
  ASHRAETau,                              ! Solar Model Indicator
  ,                                       ! Beam Solar Day Schedule Name
  ,                                       ! Diffuse Solar Day Schedule Name
  0.392,                                  ! ASHRAE Taub {dimensionless}
  2.283;                                  ! ASHRAE Taud {dimensionless}

OS:ComponentData,
  {c6a414d1-4ea9-484b-8bf3-f4bcb2f9dcc6}, ! Handle
  Component Data 1,                       ! Name
  {aae37335-2b8f-4d5b-8009-105c74a9e001}, ! UUID
  {6a96e6a2-94f8-49e5-a317-55957e56dc73}, ! Version UUID
  1366310464,                             ! Creation Timestamp
  1366310464,                             ! Version Timestamp
  {b4781cab-a8aa-44f7-a0ae-c40aec966a64}; ! Name of Object 1

