
OS:Version,
  {493e4d93-b516-4adc-8eff-7682bb8c8291}, ! Handle
  0.9.3;                                  ! Version Identifier

OS:SizingPeriod:DesignDay,
  {b7219e8e-191f-4878-85d3-038ddfd6e1e3}, ! Handle
  Oklahoma City Will Rogers Wor Ann Clg .4% Condns DB=>MWB, ! Name
  37.5,                                   ! Maximum Dry-Bulb Temperature {C}
  11.7,                                   ! Daily Dry-Bulb Temperature Range {deltaC}
  23.4,                                   ! Humidity Indicating Conditions at Maximum Dry-Bulb {BasedOnField A3}
  96634,                                  ! Barometric Pressure {Pa}
  5.5,                                    ! Wind Speed {m/s}
  170,                                    ! Wind Direction {deg}
  0,                                      ! Sky Clearness
  0,                                      ! Rain Indicator
  0,                                      ! Snow Indicator
  21,                                     ! Day of Month
  7,                                      ! Month
  SummerDesignDay,                        ! Day Type
  0,                                      ! Daylight Saving Time Indicator
  Wetbulb,                                ! Humidity Indicating Type
  ,                                       ! Humidity Indicating Day Schedule Name
  DefaultMultipliers,                     ! Dry-Bulb Temperature Range Modifier Type
  ,                                       ! Dry-Bulb Temperature Range Modifier Schedule Name
  ASHRAETau,                              ! Solar Model Indicator
  ,                                       ! Beam Solar Day Schedule Name
  ,                                       ! Diffuse Solar Day Schedule Name
  0.426,                                  ! ASHRAE Taub {dimensionless}
  2.214;                                  ! ASHRAE Taud {dimensionless}

OS:ComponentData,
  {df7c0513-9939-4697-8b5d-b5c258ef0f05}, ! Handle
  Component Data 1,                       ! Name
  {2bd46508-02f3-4ff5-87dd-bade1a676a3c}, ! UUID
  {64b74384-30a9-4f22-b8be-bcbd208c1feb}, ! Version UUID
  1366309926,                             ! Creation Timestamp
  1366309926,                             ! Version Timestamp
  {b7219e8e-191f-4878-85d3-038ddfd6e1e3}; ! Name of Object 1

