
OS:Version,
  {72a8a7b3-01e7-4ba5-a88d-931a76e1e454}, ! Handle
  0.9.3;                                  ! Version Identifier

OS:SizingPeriod:DesignDay,
  {6b6e912a-bbed-4221-8a69-a6aaf96f59d8}, ! Handle
  Phillips Price Co Ann Clg 1% Condns DB=>MWB, ! Name
  27.9,                                   ! Maximum Dry-Bulb Temperature {C}
  11.7,                                   ! Daily Dry-Bulb Temperature Range {deltaC}
  20.6,                                   ! Humidity Indicating Conditions at Maximum Dry-Bulb {BasedOnField A3}
  96046,                                  ! Barometric Pressure {Pa}
  4.1,                                    ! Wind Speed {m/s}
  200,                                    ! Wind Direction {deg}
  0,                                      ! Sky Clearness
  0,                                      ! Rain Indicator
  0,                                      ! Snow Indicator
  21,                                     ! Day of Month
  7,                                      ! Month
  SummerDesignDay,                        ! Day Type
  0,                                      ! Daylight Saving Time Indicator
  Wetbulb,                                ! Humidity Indicating Type
  ,                                       ! Humidity Indicating Day Schedule Name
  DefaultMultipliers,                     ! Dry-Bulb Temperature Range Modifier Type
  ,                                       ! Dry-Bulb Temperature Range Modifier Schedule Name
  ASHRAETau,                              ! Solar Model Indicator
  ,                                       ! Beam Solar Day Schedule Name
  ,                                       ! Diffuse Solar Day Schedule Name
  0.4,                                    ! ASHRAE Taub {dimensionless}
  2.208;                                  ! ASHRAE Taud {dimensionless}

OS:ComponentData,
  {b7933829-0fb6-4ddf-ab19-c74ca838b0fa}, ! Handle
  Component Data 1,                       ! Name
  {391dce38-9ef3-46cd-8571-526edc7af57d}, ! UUID
  {e87e0462-11e1-4c00-b8a8-215ad10063f0}, ! Version UUID
  1366311575,                             ! Creation Timestamp
  1366311575,                             ! Version Timestamp
  {6b6e912a-bbed-4221-8a69-a6aaf96f59d8}; ! Name of Object 1

