
OS:Version,
  {d6f333eb-9e12-4128-9d28-7754bbdafd86}, ! Handle
  0.9.3;                                  ! Version Identifier

OS:SizingPeriod:DesignDay,
  {4559dfd1-f8cd-4050-95f5-5fe986c4a091}, ! Handle
  Minot Faa Ap Ann Clg 2% Condns WB=>MDB, ! Name
  26.8,                                   ! Maximum Dry-Bulb Temperature {C}
  12.2,                                   ! Daily Dry-Bulb Temperature Range {deltaC}
  20.5,                                   ! Humidity Indicating Conditions at Maximum Dry-Bulb {BasedOnField A3}
  95198,                                  ! Barometric Pressure {Pa}
  5.8,                                    ! Wind Speed {m/s}
  160,                                    ! Wind Direction {deg}
  0,                                      ! Sky Clearness
  0,                                      ! Rain Indicator
  0,                                      ! Snow Indicator
  21,                                     ! Day of Month
  7,                                      ! Month
  SummerDesignDay,                        ! Day Type
  0,                                      ! Daylight Saving Time Indicator
  Wetbulb,                                ! Humidity Indicating Type
  ,                                       ! Humidity Indicating Day Schedule Name
  DefaultMultipliers,                     ! Dry-Bulb Temperature Range Modifier Type
  ,                                       ! Dry-Bulb Temperature Range Modifier Schedule Name
  ASHRAETau,                              ! Solar Model Indicator
  ,                                       ! Beam Solar Day Schedule Name
  ,                                       ! Diffuse Solar Day Schedule Name
  0.386,                                  ! ASHRAE Taub {dimensionless}
  2.249;                                  ! ASHRAE Taud {dimensionless}

OS:ComponentData,
  {4bbe05ff-f9e2-42ba-93ea-48de65abdf23}, ! Handle
  Component Data 1,                       ! Name
  {72f3f1af-aa8d-491c-a0b5-5e8da360ffc4}, ! UUID
  {4e5ed448-3fe0-4e3f-baa9-d9e99a967123}, ! Version UUID
  1366309068,                             ! Creation Timestamp
  1366309068,                             ! Version Timestamp
  {4559dfd1-f8cd-4050-95f5-5fe986c4a091}; ! Name of Object 1

