
OS:Version,
  {fcd785f7-49da-452a-855b-26a8adcf9f23}, ! Handle
  0.9.3;                                  ! Version Identifier

OS:SizingPeriod:DesignDay,
  {f5816b87-d2f1-40db-bc9d-e4a87caa5924}, ! Handle
  Pitt Greenville Arp Ann Clg .4% Condns DP=>MDB, ! Name
  29.5,                                   ! Maximum Dry-Bulb Temperature {C}
  10.1,                                   ! Daily Dry-Bulb Temperature Range {deltaC}
  24,                                     ! Humidity Indicating Conditions at Maximum Dry-Bulb {BasedOnField A3}
  101229,                                 ! Barometric Pressure {Pa}
  3.1,                                    ! Wind Speed {m/s}
  260,                                    ! Wind Direction {deg}
  0,                                      ! Sky Clearness
  0,                                      ! Rain Indicator
  0,                                      ! Snow Indicator
  21,                                     ! Day of Month
  7,                                      ! Month
  SummerDesignDay,                        ! Day Type
  0,                                      ! Daylight Saving Time Indicator
  Dewpoint,                               ! Humidity Indicating Type
  ,                                       ! Humidity Indicating Day Schedule Name
  DefaultMultipliers,                     ! Dry-Bulb Temperature Range Modifier Type
  ,                                       ! Dry-Bulb Temperature Range Modifier Schedule Name
  ASHRAETau,                              ! Solar Model Indicator
  ,                                       ! Beam Solar Day Schedule Name
  ,                                       ! Diffuse Solar Day Schedule Name
  0.601,                                  ! ASHRAE Taub {dimensionless}
  1.675;                                  ! ASHRAE Taud {dimensionless}

OS:ComponentData,
  {70096c6e-35cc-4f00-9ee2-19194e5ed9f2}, ! Handle
  Component Data 1,                       ! Name
  {8e80785d-75a2-4892-9eab-3f2582eec5dd}, ! UUID
  {a1232a99-bea9-47f8-b5cd-c7a914ab6440}, ! Version UUID
  1366308961,                             ! Creation Timestamp
  1366308961,                             ! Version Timestamp
  {f5816b87-d2f1-40db-bc9d-e4a87caa5924}; ! Name of Object 1

