
OS:Version,
  {f7b77b19-3d5f-4c72-b463-097bfc7ad32b}, ! Handle
  0.9.3;                                  ! Version Identifier

OS:SizingPeriod:DesignDay,
  {50e92b07-2425-4f92-a87c-5227b7171d92}, ! Handle
  Oklahoma City Tinker Afb Ann Htg Wind 99.6% Condns WS=>MCDB, ! Name
  4.1,                                    ! Maximum Dry-Bulb Temperature {C}
  0,                                      ! Daily Dry-Bulb Temperature Range {deltaC}
  4.1,                                    ! Humidity Indicating Conditions at Maximum Dry-Bulb {BasedOnField A3}
  96796,                                  ! Barometric Pressure {Pa}
  12.9,                                   ! Wind Speed {m/s}
  10,                                     ! Wind Direction {deg}
  0,                                      ! Sky Clearness
  0,                                      ! Rain Indicator
  0,                                      ! Snow Indicator
  21,                                     ! Day of Month
  1,                                      ! Month
  WinterDesignDay,                        ! Day Type
  0,                                      ! Daylight Saving Time Indicator
  Wetbulb,                                ! Humidity Indicating Type
  ,                                       ! Humidity Indicating Day Schedule Name
  DefaultMultipliers,                     ! Dry-Bulb Temperature Range Modifier Type
  ,                                       ! Dry-Bulb Temperature Range Modifier Schedule Name
  ASHRAEClearSky;                         ! Solar Model Indicator

OS:ComponentData,
  {5269483e-2be7-4a28-8351-9ad64ddcd31e}, ! Handle
  Component Data 1,                       ! Name
  {e79f3902-5552-4529-8ac0-65670044eed3}, ! UUID
  {99f5656f-5605-4969-938d-f100a175e8b8}, ! Version UUID
  1366309911,                             ! Creation Timestamp
  1366309911,                             ! Version Timestamp
  {50e92b07-2425-4f92-a87c-5227b7171d92}; ! Name of Object 1

