
OS:Version,
  {c6e13972-96fa-4ec4-92e1-6ffc3bbf1cbd}, ! Handle
  0.9.3;                                  ! Version Identifier

OS:SizingPeriod:DesignDay,
  {2a541971-15cd-4455-bbed-aef2e5461cad}, ! Handle
  San Francisco Ann Clg 2% Condns DB=>MWB, ! Name
  23.6,                                   ! Maximum Dry-Bulb Temperature {C}
  8.5,                                    ! Daily Dry-Bulb Temperature Range {deltaC}
  16.2,                                   ! Humidity Indicating Conditions at Maximum Dry-Bulb {BasedOnField A3}
  101265,                                 ! Barometric Pressure {Pa}
  5.9,                                    ! Wind Speed {m/s}
  310,                                    ! Wind Direction {deg}
  0,                                      ! Sky Clearness
  0,                                      ! Rain Indicator
  0,                                      ! Snow Indicator
  21,                                     ! Day of Month
  8,                                      ! Month
  SummerDesignDay,                        ! Day Type
  0,                                      ! Daylight Saving Time Indicator
  Wetbulb,                                ! Humidity Indicating Type
  ,                                       ! Humidity Indicating Day Schedule Name
  DefaultMultipliers,                     ! Dry-Bulb Temperature Range Modifier Type
  ,                                       ! Dry-Bulb Temperature Range Modifier Schedule Name
  ASHRAETau,                              ! Solar Model Indicator
  ,                                       ! Beam Solar Day Schedule Name
  ,                                       ! Diffuse Solar Day Schedule Name
  0.365,                                  ! ASHRAE Taub {dimensionless}
  2.435;                                  ! ASHRAE Taud {dimensionless}

