
OS:Version,
  {8485feca-4c39-4648-95bd-6276e3eeba7c}, ! Handle
  0.9.3;                                  ! Version Identifier

OS:SizingPeriod:DesignDay,
  {378ddd70-a709-4664-98f5-f7dc0c730879}, ! Handle
  Mcallen Miller Intl Ap  Edinb Ann Clg 2% Condns DP=>MDB, ! Name
  27.8,                                   ! Maximum Dry-Bulb Temperature {C}
  11.1,                                   ! Daily Dry-Bulb Temperature Range {deltaC}
  25,                                     ! Humidity Indicating Conditions at Maximum Dry-Bulb {BasedOnField A3}
  100965,                                 ! Barometric Pressure {Pa}
  6.6,                                    ! Wind Speed {m/s}
  140,                                    ! Wind Direction {deg}
  0,                                      ! Sky Clearness
  0,                                      ! Rain Indicator
  0,                                      ! Snow Indicator
  21,                                     ! Day of Month
  8,                                      ! Month
  SummerDesignDay,                        ! Day Type
  0,                                      ! Daylight Saving Time Indicator
  Dewpoint,                               ! Humidity Indicating Type
  ,                                       ! Humidity Indicating Day Schedule Name
  DefaultMultipliers,                     ! Dry-Bulb Temperature Range Modifier Type
  ,                                       ! Dry-Bulb Temperature Range Modifier Schedule Name
  ASHRAETau,                              ! Solar Model Indicator
  ,                                       ! Beam Solar Day Schedule Name
  ,                                       ! Diffuse Solar Day Schedule Name
  0.461,                                  ! ASHRAE Taub {dimensionless}
  2.107;                                  ! ASHRAE Taud {dimensionless}

OS:ComponentData,
  {4830d800-3eef-4ea4-a32c-8d59e966913e}, ! Handle
  Component Data 1,                       ! Name
  {8feb5fc8-6917-4324-8ed1-c57f36d650e5}, ! UUID
  {e4528196-e289-46b3-9e9c-6bbf497bd4af}, ! Version UUID
  1366310820,                             ! Creation Timestamp
  1366310820,                             ! Version Timestamp
  {378ddd70-a709-4664-98f5-f7dc0c730879}; ! Name of Object 1

