
OS:Version,
  {86d4b7a9-1a61-4c1d-9a50-7addd236748b}, ! Handle
  0.9.3;                                  ! Version Identifier

OS:SizingPeriod:DesignDay,
  {162edc2b-f02f-4da7-b4b1-5839ffdc7a4d}, ! Handle
  Spokane/Fairchild AFB Ann Clg .4% Condns DP=>MDB, ! Name
  20,                                     ! Maximum Dry-Bulb Temperature {C}
  14.6,                                   ! Daily Dry-Bulb Temperature Range {deltaC}
  14.5,                                   ! Humidity Indicating Conditions at Maximum Dry-Bulb {BasedOnField A3}
  92634,                                  ! Barometric Pressure {Pa}
  4.1,                                    ! Wind Speed {m/s}
  240,                                    ! Wind Direction {deg}
  0,                                      ! Sky Clearness
  0,                                      ! Rain Indicator
  0,                                      ! Snow Indicator
  21,                                     ! Day of Month
  7,                                      ! Month
  SummerDesignDay,                        ! Day Type
  0,                                      ! Daylight Saving Time Indicator
  Dewpoint,                               ! Humidity Indicating Type
  ,                                       ! Humidity Indicating Day Schedule Name
  DefaultMultipliers,                     ! Dry-Bulb Temperature Range Modifier Type
  ,                                       ! Dry-Bulb Temperature Range Modifier Schedule Name
  ASHRAETau,                              ! Solar Model Indicator
  ,                                       ! Beam Solar Day Schedule Name
  ,                                       ! Diffuse Solar Day Schedule Name
  0.354,                                  ! ASHRAE Taub {dimensionless}
  2.385;                                  ! ASHRAE Taud {dimensionless}

OS:ComponentData,
  {df6eeadf-6859-48c8-8170-3041d67ea053}, ! Handle
  Component Data 1,                       ! Name
  {99a72170-c3c6-4b99-b443-3274bf4c6aaa}, ! UUID
  {df601073-dfd5-4844-9bb4-044f680703fa}, ! Version UUID
  1366311391,                             ! Creation Timestamp
  1366311391,                             ! Version Timestamp
  {162edc2b-f02f-4da7-b4b1-5839ffdc7a4d}; ! Name of Object 1

