
OS:Version,
  {26dfd6f3-fc2e-4ae3-b7b3-e7df3fc07500}, ! Handle
  0.9.3;                                  ! Version Identifier

OS:SizingPeriod:DesignDay,
  {4384c778-4b46-453e-95de-ab6bf600a4c1}, ! Handle
  Syracuse Ann Htg 99% Condns DB,         ! Name
  -16.2,                                  ! Maximum Dry-Bulb Temperature {C}
  0,                                      ! Daily Dry-Bulb Temperature Range {deltaC}
  -16.2,                                  ! Humidity Indicating Conditions at Maximum Dry-Bulb {BasedOnField A3}
  99844,                                  ! Barometric Pressure {Pa}
  3,                                      ! Wind Speed {m/s}
  90,                                     ! Wind Direction {deg}
  0,                                      ! Sky Clearness
  0,                                      ! Rain Indicator
  0,                                      ! Snow Indicator
  21,                                     ! Day of Month
  1,                                      ! Month
  WinterDesignDay,                        ! Day Type
  0,                                      ! Daylight Saving Time Indicator
  Wetbulb,                                ! Humidity Indicating Type
  ,                                       ! Humidity Indicating Day Schedule Name
  DefaultMultipliers,                     ! Dry-Bulb Temperature Range Modifier Type
  ,                                       ! Dry-Bulb Temperature Range Modifier Schedule Name
  ASHRAEClearSky;                         ! Solar Model Indicator

OS:ComponentData,
  {78c13368-69c7-4f18-9553-cc8af54563ce}, ! Handle
  Component Data 1,                       ! Name
  {4958679f-f5ed-40ac-a974-3ed8061af187}, ! UUID
  {c92faffd-8267-4607-996c-0aeb71f88fcb}, ! Version UUID
  1366309728,                             ! Creation Timestamp
  1366309728,                             ! Version Timestamp
  {4384c778-4b46-453e-95de-ab6bf600a4c1}; ! Name of Object 1

