
OS:Version,
  {8798c03e-96b9-4ef9-be35-c655876fdb92}, ! Handle
  0.9.3;                                  ! Version Identifier

OS:SizingPeriod:DesignDay,
  {960d1f96-6667-43d0-9ca2-647529f91654}, ! Handle
  Truth or Consequences Ann Clg 2% Condns Enth=>MDB, ! Name
  27.7,                                   ! Maximum Dry-Bulb Temperature {C}
  13.9,                                   ! Daily Dry-Bulb Temperature Range {deltaC}
  57900,                                  ! Humidity Indicating Conditions at Maximum Dry-Bulb {BasedOnField A3}
  84784,                                  ! Barometric Pressure {Pa}
  4.6,                                    ! Wind Speed {m/s}
  170,                                    ! Wind Direction {deg}
  0,                                      ! Sky Clearness
  0,                                      ! Rain Indicator
  0,                                      ! Snow Indicator
  21,                                     ! Day of Month
  7,                                      ! Month
  SummerDesignDay,                        ! Day Type
  0,                                      ! Daylight Saving Time Indicator
  Enthalpy,                               ! Humidity Indicating Type
  ,                                       ! Humidity Indicating Day Schedule Name
  DefaultMultipliers,                     ! Dry-Bulb Temperature Range Modifier Type
  ,                                       ! Dry-Bulb Temperature Range Modifier Schedule Name
  ASHRAETau,                              ! Solar Model Indicator
  ,                                       ! Beam Solar Day Schedule Name
  ,                                       ! Diffuse Solar Day Schedule Name
  0.543,                                  ! ASHRAE Taub {dimensionless}
  1.689;                                  ! ASHRAE Taud {dimensionless}

OS:ComponentData,
  {eff7d4fe-5854-4d34-ad8c-da09141f65a3}, ! Handle
  Component Data 1,                       ! Name
  {9e35e9a2-2dee-4544-8729-3e599530dd4d}, ! UUID
  {09a3effb-7ead-40d7-ab02-547e81a6e7c3}, ! Version UUID
  1366309445,                             ! Creation Timestamp
  1366309445,                             ! Version Timestamp
  {960d1f96-6667-43d0-9ca2-647529f91654}; ! Name of Object 1

