
OS:Version,
  {9a694621-0789-44f2-acfe-067250073bb7}, ! Handle
  0.9.3;                                  ! Version Identifier

OS:SizingPeriod:DesignDay,
  {136bb311-44eb-4e03-949b-2e75ccfeabda}, ! Handle
  MINOT Ann Clg .4% Condns WB=>MDB,       ! Name
  29.1,                                   ! Maximum Dry-Bulb Temperature {C}
  12.2,                                   ! Daily Dry-Bulb Temperature Range {deltaC}
  23.1,                                   ! Humidity Indicating Conditions at Maximum Dry-Bulb {BasedOnField A3}
  95209,                                  ! Barometric Pressure {Pa}
  5.8,                                    ! Wind Speed {m/s}
  160,                                    ! Wind Direction {deg}
  0,                                      ! Sky Clearness
  0,                                      ! Rain Indicator
  0,                                      ! Snow Indicator
  21,                                     ! Day of Month
  7,                                      ! Month
  SummerDesignDay,                        ! Day Type
  0,                                      ! Daylight Saving Time Indicator
  Wetbulb,                                ! Humidity Indicating Type
  ,                                       ! Humidity Indicating Day Schedule Name
  DefaultMultipliers,                     ! Dry-Bulb Temperature Range Modifier Type
  ,                                       ! Dry-Bulb Temperature Range Modifier Schedule Name
  ASHRAETau,                              ! Solar Model Indicator
  ,                                       ! Beam Solar Day Schedule Name
  ,                                       ! Diffuse Solar Day Schedule Name
  0.386,                                  ! ASHRAE Taub {dimensionless}
  2.249;                                  ! ASHRAE Taud {dimensionless}

OS:ComponentData,
  {58b6f5e8-d789-4883-aa58-648e6232733a}, ! Handle
  Component Data 1,                       ! Name
  {7fd6d3da-0dcc-4c13-9fea-9159b186dc12}, ! UUID
  {aaedf0d1-d161-438d-b481-6b4d5ee71847}, ! Version UUID
  1366309055,                             ! Creation Timestamp
  1366309055,                             ! Version Timestamp
  {136bb311-44eb-4e03-949b-2e75ccfeabda}; ! Name of Object 1

