
OS:Version,
  {69044a96-ed26-4c5d-81c4-54b94bd1457f}, ! Handle
  0.9.3;                                  ! Version Identifier

OS:SizingPeriod:DesignDay,
  {8d57b2bb-a0ea-46fa-bc08-ff8996379df3}, ! Handle
  San Antonio Kelly Field Afb Ann Htg Wind 99.6% Condns WS=>MCDB, ! Name
  10,                                     ! Maximum Dry-Bulb Temperature {C}
  0,                                      ! Daily Dry-Bulb Temperature Range {deltaC}
  10,                                     ! Humidity Indicating Conditions at Maximum Dry-Bulb {BasedOnField A3}
  98851,                                  ! Barometric Pressure {Pa}
  10.6,                                   ! Wind Speed {m/s}
  10,                                     ! Wind Direction {deg}
  0,                                      ! Sky Clearness
  0,                                      ! Rain Indicator
  0,                                      ! Snow Indicator
  21,                                     ! Day of Month
  1,                                      ! Month
  WinterDesignDay,                        ! Day Type
  0,                                      ! Daylight Saving Time Indicator
  Wetbulb,                                ! Humidity Indicating Type
  ,                                       ! Humidity Indicating Day Schedule Name
  DefaultMultipliers,                     ! Dry-Bulb Temperature Range Modifier Type
  ,                                       ! Dry-Bulb Temperature Range Modifier Schedule Name
  ASHRAEClearSky;                         ! Solar Model Indicator

OS:ComponentData,
  {28dd85f9-6b8c-45b5-8d0f-ad2e0ac8ea2e}, ! Handle
  Component Data 1,                       ! Name
  {99a0083e-9b87-4a1c-a803-c0bee6bf03bc}, ! UUID
  {da1aa36b-a879-4c95-987b-051edbc0ab97}, ! Version UUID
  1366310881,                             ! Creation Timestamp
  1366310881,                             ! Version Timestamp
  {8d57b2bb-a0ea-46fa-bc08-ff8996379df3}; ! Name of Object 1

