
OS:Version,
  {6fa7cad5-09c2-48b5-af9f-7c46795ee41c}, ! Handle
  0.9.3;                                  ! Version Identifier

OS:SizingPeriod:DesignDay,
  {80e45591-87f9-4207-8069-126df6d559ba}, ! Handle
  Salmon Lemhi  Awos Ann Clg .4% Condns DB=>MWB, ! Name
  32.5,                                   ! Maximum Dry-Bulb Temperature {C}
  18.2,                                   ! Daily Dry-Bulb Temperature Range {deltaC}
  16.1,                                   ! Humidity Indicating Conditions at Maximum Dry-Bulb {BasedOnField A3}
  87363,                                  ! Barometric Pressure {Pa}
  3.7,                                    ! Wind Speed {m/s}
  330,                                    ! Wind Direction {deg}
  0,                                      ! Sky Clearness
  0,                                      ! Rain Indicator
  0,                                      ! Snow Indicator
  21,                                     ! Day of Month
  7,                                      ! Month
  SummerDesignDay,                        ! Day Type
  0,                                      ! Daylight Saving Time Indicator
  Wetbulb,                                ! Humidity Indicating Type
  ,                                       ! Humidity Indicating Day Schedule Name
  DefaultMultipliers,                     ! Dry-Bulb Temperature Range Modifier Type
  ,                                       ! Dry-Bulb Temperature Range Modifier Schedule Name
  ASHRAETau,                              ! Solar Model Indicator
  ,                                       ! Beam Solar Day Schedule Name
  ,                                       ! Diffuse Solar Day Schedule Name
  0.376,                                  ! ASHRAE Taub {dimensionless}
  2.269;                                  ! ASHRAE Taud {dimensionless}

OS:ComponentData,
  {ce12ac0f-573b-48cc-af5b-e6764a5906a5}, ! Handle
  Component Data 1,                       ! Name
  {2fa60879-2713-41f8-be8c-7b5370388c19}, ! UUID
  {9a71b7a8-7db3-4a03-8eb7-e2bceeeb85e2}, ! Version UUID
  1366307311,                             ! Creation Timestamp
  1366307311,                             ! Version Timestamp
  {80e45591-87f9-4207-8069-126df6d559ba}; ! Name of Object 1

