
OS:Version,
  {e0481e3a-8b88-4497-85cb-b83e8fb765dd}, ! Handle
  0.9.3;                                  ! Version Identifier

OS:SizingPeriod:DesignDay,
  {3efd87b0-102f-49f8-befc-6fad9c240ddc}, ! Handle
  Warner Robins Afb Ann Clg 1% Condns DB=>MWB, ! Name
  35,                                     ! Maximum Dry-Bulb Temperature {C}
  11,                                     ! Daily Dry-Bulb Temperature Range {deltaC}
  24.4,                                   ! Humidity Indicating Conditions at Maximum Dry-Bulb {BasedOnField A3}
  100225,                                 ! Barometric Pressure {Pa}
  3.2,                                    ! Wind Speed {m/s}
  320,                                    ! Wind Direction {deg}
  0,                                      ! Sky Clearness
  0,                                      ! Rain Indicator
  0,                                      ! Snow Indicator
  21,                                     ! Day of Month
  7,                                      ! Month
  SummerDesignDay,                        ! Day Type
  0,                                      ! Daylight Saving Time Indicator
  Wetbulb,                                ! Humidity Indicating Type
  ,                                       ! Humidity Indicating Day Schedule Name
  DefaultMultipliers,                     ! Dry-Bulb Temperature Range Modifier Type
  ,                                       ! Dry-Bulb Temperature Range Modifier Schedule Name
  ASHRAETau,                              ! Solar Model Indicator
  ,                                       ! Beam Solar Day Schedule Name
  ,                                       ! Diffuse Solar Day Schedule Name
  0.55,                                   ! ASHRAE Taub {dimensionless}
  1.811;                                  ! ASHRAE Taud {dimensionless}

OS:ComponentData,
  {0485d6ca-aee5-4ec1-83be-8d2c97a04e47}, ! Handle
  Component Data 1,                       ! Name
  {b4143ebc-3964-4182-9404-0e7947f3acf8}, ! UUID
  {5c9038f2-b58b-4ba3-af0e-5369deac1859}, ! Version UUID
  1366307066,                             ! Creation Timestamp
  1366307066,                             ! Version Timestamp
  {3efd87b0-102f-49f8-befc-6fad9c240ddc}; ! Name of Object 1

