
OS:Version,
  {d2e26e65-5b0d-4e6e-aae0-85221a2b0de2}, ! Handle
  0.9.3;                                  ! Version Identifier

OS:SizingPeriod:DesignDay,
  {5f30607f-4a61-4b50-8135-357c3434266b}, ! Handle
  PROVIDENCE Ann Clg .4% Condns Enth=>MDB, ! Name
  29.6,                                   ! Maximum Dry-Bulb Temperature {C}
  9.6,                                    ! Daily Dry-Bulb Temperature Range {deltaC}
  74900,                                  ! Humidity Indicating Conditions at Maximum Dry-Bulb {BasedOnField A3}
  101097,                                 ! Barometric Pressure {Pa}
  5.5,                                    ! Wind Speed {m/s}
  280,                                    ! Wind Direction {deg}
  0,                                      ! Sky Clearness
  0,                                      ! Rain Indicator
  0,                                      ! Snow Indicator
  21,                                     ! Day of Month
  7,                                      ! Month
  SummerDesignDay,                        ! Day Type
  0,                                      ! Daylight Saving Time Indicator
  Enthalpy,                               ! Humidity Indicating Type
  ,                                       ! Humidity Indicating Day Schedule Name
  DefaultMultipliers,                     ! Dry-Bulb Temperature Range Modifier Type
  ,                                       ! Dry-Bulb Temperature Range Modifier Schedule Name
  ASHRAETau,                              ! Solar Model Indicator
  ,                                       ! Beam Solar Day Schedule Name
  ,                                       ! Diffuse Solar Day Schedule Name
  0.507,                                  ! ASHRAE Taub {dimensionless}
  1.885;                                  ! ASHRAE Taud {dimensionless}

OS:ComponentData,
  {2ad6ef34-d09e-416a-891d-29b81ebe5340}, ! Handle
  Component Data 1,                       ! Name
  {9fc156d5-a8e5-48b9-9cda-427d37c4f91d}, ! UUID
  {013b01bf-d005-4cda-a1c7-9926b4ba5a62}, ! Version UUID
  1366310309,                             ! Creation Timestamp
  1366310309,                             ! Version Timestamp
  {5f30607f-4a61-4b50-8135-357c3434266b}; ! Name of Object 1

