
OS:Version,
  {1fba05ec-7235-4764-b6cc-fbbd702e6a27}, ! Handle
  0.9.3;                                  ! Version Identifier

OS:SizingPeriod:DesignDay,
  {03d73f4a-8465-4bbe-b421-5d4dc31bf40e}, ! Handle
  Sitka Japonski Ap Ann Hum_n 99% Condns DP=>MCDB, ! Name
  -4.5,                                   ! Maximum Dry-Bulb Temperature {C}
  0,                                      ! Daily Dry-Bulb Temperature Range {deltaC}
  -15.3,                                  ! Humidity Indicating Conditions at Maximum Dry-Bulb {BasedOnField A3}
  101277,                                 ! Barometric Pressure {Pa}
  3.1,                                    ! Wind Speed {m/s}
  80,                                     ! Wind Direction {deg}
  0,                                      ! Sky Clearness
  0,                                      ! Rain Indicator
  0,                                      ! Snow Indicator
  21,                                     ! Day of Month
  1,                                      ! Month
  WinterDesignDay,                        ! Day Type
  0,                                      ! Daylight Saving Time Indicator
  Dewpoint,                               ! Humidity Indicating Type
  ,                                       ! Humidity Indicating Day Schedule Name
  DefaultMultipliers,                     ! Dry-Bulb Temperature Range Modifier Type
  ,                                       ! Dry-Bulb Temperature Range Modifier Schedule Name
  ASHRAEClearSky;                         ! Solar Model Indicator

OS:ComponentData,
  {af358114-359e-4a35-99f5-7d4f2d60bc81}, ! Handle
  Component Data 1,                       ! Name
  {06632f4d-e444-4728-ba08-e86677abba7b}, ! UUID
  {7f60fa1c-6732-429e-a583-883daed01a6b}, ! Version UUID
  1366305550,                             ! Creation Timestamp
  1366305550,                             ! Version Timestamp
  {03d73f4a-8465-4bbe-b421-5d4dc31bf40e}; ! Name of Object 1

