
OS:Version,
  {d370eb7a-2ff4-4a43-b05b-061167505020}, ! Handle
  0.9.3;                                  ! Version Identifier

OS:SizingPeriod:DesignDay,
  {c930b180-0885-427b-9f27-16e36f9c4ff8}, ! Handle
  Vichy Rolla Natl Arpt Ann Htg 99.6% Condns DB, ! Name
  -15.3,                                  ! Maximum Dry-Bulb Temperature {C}
  0,                                      ! Daily Dry-Bulb Temperature Range {deltaC}
  -15.3,                                  ! Humidity Indicating Conditions at Maximum Dry-Bulb {BasedOnField A3}
  97353,                                  ! Barometric Pressure {Pa}
  4,                                      ! Wind Speed {m/s}
  300,                                    ! Wind Direction {deg}
  0,                                      ! Sky Clearness
  0,                                      ! Rain Indicator
  0,                                      ! Snow Indicator
  21,                                     ! Day of Month
  1,                                      ! Month
  WinterDesignDay,                        ! Day Type
  0,                                      ! Daylight Saving Time Indicator
  Wetbulb,                                ! Humidity Indicating Type
  ,                                       ! Humidity Indicating Day Schedule Name
  DefaultMultipliers,                     ! Dry-Bulb Temperature Range Modifier Type
  ,                                       ! Dry-Bulb Temperature Range Modifier Schedule Name
  ASHRAEClearSky;                         ! Solar Model Indicator

OS:ComponentData,
  {c91109b2-7726-4d6c-9c42-f3d6bc23a685}, ! Handle
  Component Data 1,                       ! Name
  {933a74a2-211e-4e1b-b0a1-8c29045f9bf3}, ! UUID
  {948ce8d3-a2f0-4f10-8771-c3b3f98f3904}, ! Version UUID
  1366308548,                             ! Creation Timestamp
  1366308548,                             ! Version Timestamp
  {c930b180-0885-427b-9f27-16e36f9c4ff8}; ! Name of Object 1

