
OS:Version,
  {46479e1a-4f96-4933-938e-a0e779c6bc1f}, ! Handle
  0.9.3;                                  ! Version Identifier

OS:SizingPeriod:DesignDay,
  {e2c7acce-3f89-43d3-8e11-abaaf5dcf226}, ! Handle
  Minneapolis-St Paul Ann Clg 1% Condns Enth=>MDB, ! Name
  29,                                     ! Maximum Dry-Bulb Temperature {C}
  9.9,                                    ! Daily Dry-Bulb Temperature Range {deltaC}
  72700,                                  ! Humidity Indicating Conditions at Maximum Dry-Bulb {BasedOnField A3}
  98299,                                  ! Barometric Pressure {Pa}
  6,                                      ! Wind Speed {m/s}
  180,                                    ! Wind Direction {deg}
  0,                                      ! Sky Clearness
  0,                                      ! Rain Indicator
  0,                                      ! Snow Indicator
  21,                                     ! Day of Month
  7,                                      ! Month
  SummerDesignDay,                        ! Day Type
  0,                                      ! Daylight Saving Time Indicator
  Enthalpy,                               ! Humidity Indicating Type
  ,                                       ! Humidity Indicating Day Schedule Name
  DefaultMultipliers,                     ! Dry-Bulb Temperature Range Modifier Type
  ,                                       ! Dry-Bulb Temperature Range Modifier Schedule Name
  ASHRAETau,                              ! Solar Model Indicator
  ,                                       ! Beam Solar Day Schedule Name
  ,                                       ! Diffuse Solar Day Schedule Name
  0.416,                                  ! ASHRAE Taub {dimensionless}
  2.18;                                   ! ASHRAE Taud {dimensionless}

