
OS:Version,
  {ee283cfd-ac64-449d-b326-a25920a40206}, ! Handle
  0.9.3;                                  ! Version Identifier

OS:SizingPeriod:DesignDay,
  {fedf28ce-d5f7-4f94-89c2-501292ca6d7e}, ! Handle
  Minneapolis-St Paul Ann Clg 1% Condns Enth=>MDB, ! Name
  29,                                     ! Maximum Dry-Bulb Temperature {C}
  9.9,                                    ! Daily Dry-Bulb Temperature Range {deltaC}
  72700,                                  ! Humidity Indicating Conditions at Maximum Dry-Bulb {BasedOnField A3}
  98299,                                  ! Barometric Pressure {Pa}
  6,                                      ! Wind Speed {m/s}
  180,                                    ! Wind Direction {deg}
  0,                                      ! Sky Clearness
  0,                                      ! Rain Indicator
  0,                                      ! Snow Indicator
  21,                                     ! Day of Month
  7,                                      ! Month
  SummerDesignDay,                        ! Day Type
  0,                                      ! Daylight Saving Time Indicator
  Enthalpy,                               ! Humidity Indicating Type
  ,                                       ! Humidity Indicating Day Schedule Name
  DefaultMultipliers,                     ! Dry-Bulb Temperature Range Modifier Type
  ,                                       ! Dry-Bulb Temperature Range Modifier Schedule Name
  ASHRAETau,                              ! Solar Model Indicator
  ,                                       ! Beam Solar Day Schedule Name
  ,                                       ! Diffuse Solar Day Schedule Name
  0.416,                                  ! ASHRAE Taub {dimensionless}
  2.18;                                   ! ASHRAE Taud {dimensionless}

OS:ComponentData,
  {1512bd94-7a1a-48e5-8d39-fb3cf3214dfb}, ! Handle
  Component Data 1,                       ! Name
  {d30eff65-a32e-46ac-981a-8f4916948b36}, ! UUID
  {b2283e6c-bfe3-42f2-a192-eaa90a231cf4}, ! Version UUID
  1366308320,                             ! Creation Timestamp
  1366308320,                             ! Version Timestamp
  {fedf28ce-d5f7-4f94-89c2-501292ca6d7e}; ! Name of Object 1

