
OS:Version,
  {8a27e690-f093-47d8-8fab-806f07651701}, ! Handle
  0.9.3;                                  ! Version Identifier

OS:SizingPeriod:DesignDay,
  {0200ea22-3262-4d6c-826d-3ccd4d509fe1}, ! Handle
  Rutland State Ann Clg 2% Condns DP=>MDB, ! Name
  23.9,                                   ! Maximum Dry-Bulb Temperature {C}
  10.5,                                   ! Daily Dry-Bulb Temperature Range {deltaC}
  18.9,                                   ! Humidity Indicating Conditions at Maximum Dry-Bulb {BasedOnField A3}
  98404,                                  ! Barometric Pressure {Pa}
  3.2,                                    ! Wind Speed {m/s}
  240,                                    ! Wind Direction {deg}
  0,                                      ! Sky Clearness
  0,                                      ! Rain Indicator
  0,                                      ! Snow Indicator
  21,                                     ! Day of Month
  7,                                      ! Month
  SummerDesignDay,                        ! Day Type
  0,                                      ! Daylight Saving Time Indicator
  Dewpoint,                               ! Humidity Indicating Type
  ,                                       ! Humidity Indicating Day Schedule Name
  DefaultMultipliers,                     ! Dry-Bulb Temperature Range Modifier Type
  ,                                       ! Dry-Bulb Temperature Range Modifier Schedule Name
  ASHRAETau,                              ! Solar Model Indicator
  ,                                       ! Beam Solar Day Schedule Name
  ,                                       ! Diffuse Solar Day Schedule Name
  0.45,                                   ! ASHRAE Taub {dimensionless}
  2.023;                                  ! ASHRAE Taud {dimensionless}

OS:ComponentData,
  {10aadd6e-6ac0-48f1-983f-b11f6f38b03b}, ! Handle
  Component Data 1,                       ! Name
  {ef328f11-d3da-46b5-afff-fb88466cd742}, ! UUID
  {027d939c-ef87-4014-bdc4-87c2a607c1ea}, ! Version UUID
  1366311257,                             ! Creation Timestamp
  1366311257,                             ! Version Timestamp
  {0200ea22-3262-4d6c-826d-3ccd4d509fe1}; ! Name of Object 1

