
OS:Version,
  {6145fe98-0662-46bd-9db7-713f34c89dec}, ! Handle
  0.9.3;                                  ! Version Identifier

OS:SizingPeriod:DesignDay,
  {cc3aafb2-7026-4220-b5d9-9acaaa51ffdb}, ! Handle
  Redmond Ann Hum_n 99% Condns DP=>MCDB,  ! Name
  -9.3,                                   ! Maximum Dry-Bulb Temperature {C}
  0,                                      ! Daily Dry-Bulb Temperature Range {deltaC}
  -14.7,                                  ! Humidity Indicating Conditions at Maximum Dry-Bulb {BasedOnField A3}
  90552,                                  ! Barometric Pressure {Pa}
  1.7,                                    ! Wind Speed {m/s}
  320,                                    ! Wind Direction {deg}
  0,                                      ! Sky Clearness
  0,                                      ! Rain Indicator
  0,                                      ! Snow Indicator
  21,                                     ! Day of Month
  12,                                     ! Month
  WinterDesignDay,                        ! Day Type
  0,                                      ! Daylight Saving Time Indicator
  Dewpoint,                               ! Humidity Indicating Type
  ,                                       ! Humidity Indicating Day Schedule Name
  DefaultMultipliers,                     ! Dry-Bulb Temperature Range Modifier Type
  ,                                       ! Dry-Bulb Temperature Range Modifier Schedule Name
  ASHRAEClearSky;                         ! Solar Model Indicator

OS:ComponentData,
  {4a78bf3c-c2d5-4248-a5f0-b6a587934e2e}, ! Handle
  Component Data 1,                       ! Name
  {4691df09-4a1e-43d8-95a8-7cc238144e09}, ! UUID
  {3ef86ee5-891e-42e9-ab9a-9573ecd848b9}, ! Version UUID
  1366310092,                             ! Creation Timestamp
  1366310092,                             ! Version Timestamp
  {cc3aafb2-7026-4220-b5d9-9acaaa51ffdb}; ! Name of Object 1

