
OS:Version,
  {9eb0df66-751a-4f57-8f64-7f753edf30d3}, ! Handle
  0.9.3;                                  ! Version Identifier

OS:SizingPeriod:DesignDay,
  {511c536f-0af1-4793-8d41-95c02d98261d}, ! Handle
  Montgomery Dannelly Field Ann Clg .4% Condns Enth=>MDB, ! Name
  32.7,                                   ! Maximum Dry-Bulb Temperature {C}
  10.9,                                   ! Daily Dry-Bulb Temperature Range {deltaC}
  82600,                                  ! Humidity Indicating Conditions at Maximum Dry-Bulb {BasedOnField A3}
  100582,                                 ! Barometric Pressure {Pa}
  3.1,                                    ! Wind Speed {m/s}
  300,                                    ! Wind Direction {deg}
  0,                                      ! Sky Clearness
  0,                                      ! Rain Indicator
  0,                                      ! Snow Indicator
  21,                                     ! Day of Month
  7,                                      ! Month
  SummerDesignDay,                        ! Day Type
  0,                                      ! Daylight Saving Time Indicator
  Enthalpy,                               ! Humidity Indicating Type
  ,                                       ! Humidity Indicating Day Schedule Name
  DefaultMultipliers,                     ! Dry-Bulb Temperature Range Modifier Type
  ,                                       ! Dry-Bulb Temperature Range Modifier Schedule Name
  ASHRAETau,                              ! Solar Model Indicator
  ,                                       ! Beam Solar Day Schedule Name
  ,                                       ! Diffuse Solar Day Schedule Name
  0.573,                                  ! ASHRAE Taub {dimensionless}
  1.761;                                  ! ASHRAE Taud {dimensionless}

OS:ComponentData,
  {454df36a-1bc6-4529-b056-0f9ed4762a39}, ! Handle
  Component Data 1,                       ! Name
  {a98713a0-db1d-4d17-93d6-a3a6a0ee3312}, ! UUID
  {292ea4ee-ddf0-4ab0-8ef6-046002c96994}, ! Version UUID
  1366305920,                             ! Creation Timestamp
  1366305920,                             ! Version Timestamp
  {511c536f-0af1-4793-8d41-95c02d98261d}; ! Name of Object 1

