
OS:Version,
  {c6df5c2e-f58e-4507-bc8f-8cc8b4dd9839}, ! Handle
  0.9.3;                                  ! Version Identifier

OS:SizingPeriod:DesignDay,
  {59f18ba0-bbe3-4edf-bfcf-8b8637df6f21}, ! Handle
  MASON_CITY Ann Hum_n 99% Condns DP=>MCDB, ! Name
  -21.8,                                  ! Maximum Dry-Bulb Temperature {C}
  0,                                      ! Daily Dry-Bulb Temperature Range {deltaC}
  -26.3,                                  ! Humidity Indicating Conditions at Maximum Dry-Bulb {BasedOnField A3}
  96924,                                  ! Barometric Pressure {Pa}
  5,                                      ! Wind Speed {m/s}
  300,                                    ! Wind Direction {deg}
  0,                                      ! Sky Clearness
  0,                                      ! Rain Indicator
  0,                                      ! Snow Indicator
  21,                                     ! Day of Month
  1,                                      ! Month
  WinterDesignDay,                        ! Day Type
  0,                                      ! Daylight Saving Time Indicator
  Dewpoint,                               ! Humidity Indicating Type
  ,                                       ! Humidity Indicating Day Schedule Name
  DefaultMultipliers,                     ! Dry-Bulb Temperature Range Modifier Type
  ,                                       ! Dry-Bulb Temperature Range Modifier Schedule Name
  ASHRAEClearSky;                         ! Solar Model Indicator

OS:ComponentData,
  {bca90557-4466-448f-bf31-4e514dcc2563}, ! Handle
  Component Data 1,                       ! Name
  {c627ff5d-9e0e-4e4a-8a0f-9c35ba187c0c}, ! UUID
  {4d451f2b-1427-4237-870c-be5ffa504690}, ! Version UUID
  1366307209,                             ! Creation Timestamp
  1366307209,                             ! Version Timestamp
  {59f18ba0-bbe3-4edf-bfcf-8b8637df6f21}; ! Name of Object 1

