
OS:Version,
  {842f6ea7-986b-412b-b0cd-924f64be7937}, ! Handle
  0.9.3;                                  ! Version Identifier

OS:SizingPeriod:DesignDay,
  {16322442-b5c8-4c03-a584-4b8226ce8f10}, ! Handle
  ROANOKE Ann Clg 2% Condns WB=>MDB,      ! Name
  28.6,                                   ! Maximum Dry-Bulb Temperature {C}
  10.6,                                   ! Daily Dry-Bulb Temperature Range {deltaC}
  23,                                     ! Humidity Indicating Conditions at Maximum Dry-Bulb {BasedOnField A3}
  97098,                                  ! Barometric Pressure {Pa}
  4,                                      ! Wind Speed {m/s}
  280,                                    ! Wind Direction {deg}
  0,                                      ! Sky Clearness
  0,                                      ! Rain Indicator
  0,                                      ! Snow Indicator
  21,                                     ! Day of Month
  7,                                      ! Month
  SummerDesignDay,                        ! Day Type
  0,                                      ! Daylight Saving Time Indicator
  Wetbulb,                                ! Humidity Indicating Type
  ,                                       ! Humidity Indicating Day Schedule Name
  DefaultMultipliers,                     ! Dry-Bulb Temperature Range Modifier Type
  ,                                       ! Dry-Bulb Temperature Range Modifier Schedule Name
  ASHRAETau,                              ! Solar Model Indicator
  ,                                       ! Beam Solar Day Schedule Name
  ,                                       ! Diffuse Solar Day Schedule Name
  0.529,                                  ! ASHRAE Taub {dimensionless}
  1.818;                                  ! ASHRAE Taud {dimensionless}

OS:ComponentData,
  {58202e2e-4c36-43e3-9fd2-8c13ecc2c72d}, ! Handle
  Component Data 1,                       ! Name
  {7d94a515-76cb-4d92-8735-88aaef30ad5e}, ! UUID
  {042d0aca-a5f5-4167-ad71-0ccfa313c3bd}, ! Version UUID
  1366311180,                             ! Creation Timestamp
  1366311180,                             ! Version Timestamp
  {16322442-b5c8-4c03-a584-4b8226ce8f10}; ! Name of Object 1

