
OS:Version,
  {70e36564-337a-4a3d-ba3b-4e374c81ec28}, ! Handle
  0.9.3;                                  ! Version Identifier

OS:SizingPeriod:DesignDay,
  {22463b1e-d509-4d0e-9aae-be3739c8434c}, ! Handle
  Worthington  Awos Ann Clg 1% Condns DP=>MDB, ! Name
  26.7,                                   ! Maximum Dry-Bulb Temperature {C}
  9.9,                                    ! Daily Dry-Bulb Temperature Range {deltaC}
  22.3,                                   ! Humidity Indicating Conditions at Maximum Dry-Bulb {BasedOnField A3}
  95690,                                  ! Barometric Pressure {Pa}
  6.7,                                    ! Wind Speed {m/s}
  190,                                    ! Wind Direction {deg}
  0,                                      ! Sky Clearness
  0,                                      ! Rain Indicator
  0,                                      ! Snow Indicator
  21,                                     ! Day of Month
  7,                                      ! Month
  SummerDesignDay,                        ! Day Type
  0,                                      ! Daylight Saving Time Indicator
  Dewpoint,                               ! Humidity Indicating Type
  ,                                       ! Humidity Indicating Day Schedule Name
  DefaultMultipliers,                     ! Dry-Bulb Temperature Range Modifier Type
  ,                                       ! Dry-Bulb Temperature Range Modifier Schedule Name
  ASHRAETau,                              ! Solar Model Indicator
  ,                                       ! Beam Solar Day Schedule Name
  ,                                       ! Diffuse Solar Day Schedule Name
  0.393,                                  ! ASHRAE Taub {dimensionless}
  2.274;                                  ! ASHRAE Taud {dimensionless}

OS:ComponentData,
  {eb239abf-64a9-46a0-932e-35ec8899b8f4}, ! Handle
  Component Data 1,                       ! Name
  {3718bcba-817b-419a-b6f8-7c042588d7d0}, ! UUID
  {2e6b224b-3407-438e-a64d-47422f9a34c7}, ! Version UUID
  1366308470,                             ! Creation Timestamp
  1366308470,                             ! Version Timestamp
  {22463b1e-d509-4d0e-9aae-be3739c8434c}; ! Name of Object 1

