
OS:Version,
  {3a36c26e-07c7-40cb-997b-80e15a2f4f04}, ! Handle
  0.9.3;                                  ! Version Identifier

OS:SizingPeriod:DesignDay,
  {13847ee7-a359-418a-a0dd-2fe0e7905dc2}, ! Handle
  Stockton Metropolitan Arpt Ann Clg 2% Condns Enth=>MDB, ! Name
  33.4,                                   ! Maximum Dry-Bulb Temperature {C}
  17.5,                                   ! Daily Dry-Bulb Temperature Range {deltaC}
  59600,                                  ! Humidity Indicating Conditions at Maximum Dry-Bulb {BasedOnField A3}
  101241,                                 ! Barometric Pressure {Pa}
  4.5,                                    ! Wind Speed {m/s}
  310,                                    ! Wind Direction {deg}
  0,                                      ! Sky Clearness
  0,                                      ! Rain Indicator
  0,                                      ! Snow Indicator
  21,                                     ! Day of Month
  7,                                      ! Month
  SummerDesignDay,                        ! Day Type
  0,                                      ! Daylight Saving Time Indicator
  Enthalpy,                               ! Humidity Indicating Type
  ,                                       ! Humidity Indicating Day Schedule Name
  DefaultMultipliers,                     ! Dry-Bulb Temperature Range Modifier Type
  ,                                       ! Dry-Bulb Temperature Range Modifier Schedule Name
  ASHRAETau,                              ! Solar Model Indicator
  ,                                       ! Beam Solar Day Schedule Name
  ,                                       ! Diffuse Solar Day Schedule Name
  0.391,                                  ! ASHRAE Taub {dimensionless}
  2.312;                                  ! ASHRAE Taud {dimensionless}

OS:ComponentData,
  {52d737a8-ef01-4bc9-80e1-04b539861eea}, ! Handle
  Component Data 1,                       ! Name
  {df26bc57-8ebe-4244-bf7f-e3ab4c7e445c}, ! UUID
  {08f28936-49c9-415a-9656-f97793d5282a}, ! Version UUID
  1366306623,                             ! Creation Timestamp
  1366306623,                             ! Version Timestamp
  {13847ee7-a359-418a-a0dd-2fe0e7905dc2}; ! Name of Object 1

