
OS:Version,
  {fd1c7926-0a80-4c38-a874-9a3de7abeb0d}, ! Handle
  0.9.3;                                  ! Version Identifier

OS:SizingPeriod:DesignDay,
  {a0beb889-0f0a-4e9e-ba10-4bb9d97144b0}, ! Handle
  Melfa Accomack Arpt Ann Hum_n 99.6% Condns DP=>MCDB, ! Name
  -4.6,                                   ! Maximum Dry-Bulb Temperature {C}
  0,                                      ! Daily Dry-Bulb Temperature Range {deltaC}
  -15.5,                                  ! Humidity Indicating Conditions at Maximum Dry-Bulb {BasedOnField A3}
  101145,                                 ! Barometric Pressure {Pa}
  3.9,                                    ! Wind Speed {m/s}
  340,                                    ! Wind Direction {deg}
  0,                                      ! Sky Clearness
  0,                                      ! Rain Indicator
  0,                                      ! Snow Indicator
  21,                                     ! Day of Month
  1,                                      ! Month
  WinterDesignDay,                        ! Day Type
  0,                                      ! Daylight Saving Time Indicator
  Dewpoint,                               ! Humidity Indicating Type
  ,                                       ! Humidity Indicating Day Schedule Name
  DefaultMultipliers,                     ! Dry-Bulb Temperature Range Modifier Type
  ,                                       ! Dry-Bulb Temperature Range Modifier Schedule Name
  ASHRAEClearSky;                         ! Solar Model Indicator

OS:ComponentData,
  {7e3f0442-abad-4062-887f-dd4224871c82}, ! Handle
  Component Data 1,                       ! Name
  {50d2dab2-e903-4903-8b43-9d3a9e3e86b2}, ! UUID
  {a9c033e4-a24a-4a10-b69d-a89773e50cea}, ! Version UUID
  1366311110,                             ! Creation Timestamp
  1366311110,                             ! Version Timestamp
  {a0beb889-0f0a-4e9e-ba10-4bb9d97144b0}; ! Name of Object 1

