
OS:Version,
  {98a76705-2bc5-4659-875f-ec1c8775835a}, ! Handle
  0.9.3;                                  ! Version Identifier

OS:SizingPeriod:DesignDay,
  {b87cfe1d-c1b5-40ff-b8a3-f1deb07f80ef}, ! Handle
  Winnemucca Municipal Arpt Ann Clg .4% Condns DP=>MDB, ! Name
  21.9,                                   ! Maximum Dry-Bulb Temperature {C}
  21.5,                                   ! Daily Dry-Bulb Temperature Range {deltaC}
  13.2,                                   ! Humidity Indicating Conditions at Maximum Dry-Bulb {BasedOnField A3}
  86546,                                  ! Barometric Pressure {Pa}
  4.4,                                    ! Wind Speed {m/s}
  240,                                    ! Wind Direction {deg}
  0,                                      ! Sky Clearness
  0,                                      ! Rain Indicator
  0,                                      ! Snow Indicator
  21,                                     ! Day of Month
  7,                                      ! Month
  SummerDesignDay,                        ! Day Type
  0,                                      ! Daylight Saving Time Indicator
  Dewpoint,                               ! Humidity Indicating Type
  ,                                       ! Humidity Indicating Day Schedule Name
  DefaultMultipliers,                     ! Dry-Bulb Temperature Range Modifier Type
  ,                                       ! Dry-Bulb Temperature Range Modifier Schedule Name
  ASHRAETau,                              ! Solar Model Indicator
  ,                                       ! Beam Solar Day Schedule Name
  ,                                       ! Diffuse Solar Day Schedule Name
  0.441,                                  ! ASHRAE Taub {dimensionless}
  1.893;                                  ! ASHRAE Taud {dimensionless}

OS:ComponentData,
  {fd4ecd0b-9439-463f-90f8-7ba6a4b766da}, ! Handle
  Component Data 1,                       ! Name
  {cd83d697-0e12-4c1e-b302-31c5c0e380c8}, ! UUID
  {3f3cd385-abce-477f-859d-b6154b39e84d}, ! Version UUID
  1366309569,                             ! Creation Timestamp
  1366309569,                             ! Version Timestamp
  {b87cfe1d-c1b5-40ff-b8a3-f1deb07f80ef}; ! Name of Object 1

