
OS:Version,
  {4fa0bf79-6911-4332-99f8-7f140e734276}, ! Handle
  0.9.3;                                  ! Version Identifier

OS:SizingPeriod:DesignDay,
  {25d70c06-4422-40a7-99cd-34cbcc955218}, ! Handle
  Wenatchee Pangborn Ann Clg 2% Condns Enth=>MDB, ! Name
  29.9,                                   ! Maximum Dry-Bulb Temperature {C}
  13.8,                                   ! Daily Dry-Bulb Temperature Range {deltaC}
  52100,                                  ! Humidity Indicating Conditions at Maximum Dry-Bulb {BasedOnField A3}
  96854,                                  ! Barometric Pressure {Pa}
  3.6,                                    ! Wind Speed {m/s}
  120,                                    ! Wind Direction {deg}
  0,                                      ! Sky Clearness
  0,                                      ! Rain Indicator
  0,                                      ! Snow Indicator
  21,                                     ! Day of Month
  7,                                      ! Month
  SummerDesignDay,                        ! Day Type
  0,                                      ! Daylight Saving Time Indicator
  Enthalpy,                               ! Humidity Indicating Type
  ,                                       ! Humidity Indicating Day Schedule Name
  DefaultMultipliers,                     ! Dry-Bulb Temperature Range Modifier Type
  ,                                       ! Dry-Bulb Temperature Range Modifier Schedule Name
  ASHRAETau,                              ! Solar Model Indicator
  ,                                       ! Beam Solar Day Schedule Name
  ,                                       ! Diffuse Solar Day Schedule Name
  0.377,                                  ! ASHRAE Taub {dimensionless}
  2.355;                                  ! ASHRAE Taud {dimensionless}

OS:ComponentData,
  {1bf689bb-cf82-45ae-a7c7-e36156d0b69d}, ! Handle
  Component Data 1,                       ! Name
  {5fc48df1-a308-436a-b990-ef0b6efa482d}, ! UUID
  {a85c20c9-c125-4b94-a1ad-43b0000e69bb}, ! Version UUID
  1366311428,                             ! Creation Timestamp
  1366311428,                             ! Version Timestamp
  {25d70c06-4422-40a7-99cd-34cbcc955218}; ! Name of Object 1

