
OS:Version,
  {6cd7090f-7dec-476e-8db4-ab0eb8e077c7}, ! Handle
  0.9.3;                                  ! Version Identifier

OS:SizingPeriod:DesignDay,
  {de51d066-5035-4e17-92a6-d84ff0af5720}, ! Handle
  Plymouth Municipal Ann Clg 1% Condns DP=>MDB, ! Name
  25.5,                                   ! Maximum Dry-Bulb Temperature {C}
  10.5,                                   ! Daily Dry-Bulb Temperature Range {deltaC}
  22.5,                                   ! Humidity Indicating Conditions at Maximum Dry-Bulb {BasedOnField A3}
  100786,                                 ! Barometric Pressure {Pa}
  4.9,                                    ! Wind Speed {m/s}
  220,                                    ! Wind Direction {deg}
  0,                                      ! Sky Clearness
  0,                                      ! Rain Indicator
  0,                                      ! Snow Indicator
  21,                                     ! Day of Month
  7,                                      ! Month
  SummerDesignDay,                        ! Day Type
  0,                                      ! Daylight Saving Time Indicator
  Dewpoint,                               ! Humidity Indicating Type
  ,                                       ! Humidity Indicating Day Schedule Name
  DefaultMultipliers,                     ! Dry-Bulb Temperature Range Modifier Type
  ,                                       ! Dry-Bulb Temperature Range Modifier Schedule Name
  ASHRAETau,                              ! Solar Model Indicator
  ,                                       ! Beam Solar Day Schedule Name
  ,                                       ! Diffuse Solar Day Schedule Name
  0.502,                                  ! ASHRAE Taub {dimensionless}
  1.901;                                  ! ASHRAE Taud {dimensionless}

OS:ComponentData,
  {1a37d0b0-ce68-44d1-be72-ace24da2a4dd}, ! Handle
  Component Data 1,                       ! Name
  {c1b3af96-eaf1-44b3-8f52-f0ec61d4658f}, ! UUID
  {91538990-2609-4dc2-9bb4-291b6cad3500}, ! Version UUID
  1366307819,                             ! Creation Timestamp
  1366307819,                             ! Version Timestamp
  {de51d066-5035-4e17-92a6-d84ff0af5720}; ! Name of Object 1

