
OS:Version,
  {f1c55363-5b1b-4fcc-880d-7731b8194b79}, ! Handle
  0.9.3;                                  ! Version Identifier

OS:SizingPeriod:DesignDay,
  {028d874e-bf27-4eba-a388-56523ba200a6}, ! Handle
  NOME Ann Hum_n 99% Condns DP=>MCDB,     ! Name
  -30.2,                                  ! Maximum Dry-Bulb Temperature {C}
  0,                                      ! Daily Dry-Bulb Temperature Range {deltaC}
  -34.1,                                  ! Humidity Indicating Conditions at Maximum Dry-Bulb {BasedOnField A3}
  101241,                                 ! Barometric Pressure {Pa}
  1.1,                                    ! Wind Speed {m/s}
  10,                                     ! Wind Direction {deg}
  0,                                      ! Sky Clearness
  0,                                      ! Rain Indicator
  0,                                      ! Snow Indicator
  21,                                     ! Day of Month
  1,                                      ! Month
  WinterDesignDay,                        ! Day Type
  0,                                      ! Daylight Saving Time Indicator
  Dewpoint,                               ! Humidity Indicating Type
  ,                                       ! Humidity Indicating Day Schedule Name
  DefaultMultipliers,                     ! Dry-Bulb Temperature Range Modifier Type
  ,                                       ! Dry-Bulb Temperature Range Modifier Schedule Name
  ASHRAEClearSky;                         ! Solar Model Indicator

OS:ComponentData,
  {9f36d083-7ea4-44d0-9805-adad33ebcf1b}, ! Handle
  Component Data 1,                       ! Name
  {0ca37650-b0a0-41cd-aa2e-6a458ac5943b}, ! UUID
  {df4c8de2-99d3-4ab9-88ec-6ef0c5c097b8}, ! Version UUID
  1366305445,                             ! Creation Timestamp
  1366305445,                             ! Version Timestamp
  {028d874e-bf27-4eba-a388-56523ba200a6}; ! Name of Object 1

