
OS:Version,
  {9d996042-720b-484b-ac93-b23f96608e0b}, ! Handle
  0.9.3;                                  ! Version Identifier

OS:SizingPeriod:DesignDay,
  {dee51bd2-b016-4ed0-83e9-afe19fdb174c}, ! Handle
  Taos Muni Apt Awos Ann Clg 2% Condns DB=>MWB, ! Name
  28,                                     ! Maximum Dry-Bulb Temperature {C}
  18.1,                                   ! Daily Dry-Bulb Temperature Range {deltaC}
  12.4,                                   ! Humidity Indicating Conditions at Maximum Dry-Bulb {BasedOnField A3}
  77919,                                  ! Barometric Pressure {Pa}
  5.6,                                    ! Wind Speed {m/s}
  260,                                    ! Wind Direction {deg}
  0,                                      ! Sky Clearness
  0,                                      ! Rain Indicator
  0,                                      ! Snow Indicator
  21,                                     ! Day of Month
  7,                                      ! Month
  SummerDesignDay,                        ! Day Type
  0,                                      ! Daylight Saving Time Indicator
  Wetbulb,                                ! Humidity Indicating Type
  ,                                       ! Humidity Indicating Day Schedule Name
  DefaultMultipliers,                     ! Dry-Bulb Temperature Range Modifier Type
  ,                                       ! Dry-Bulb Temperature Range Modifier Schedule Name
  ASHRAETau,                              ! Solar Model Indicator
  ,                                       ! Beam Solar Day Schedule Name
  ,                                       ! Diffuse Solar Day Schedule Name
  0.399,                                  ! ASHRAE Taub {dimensionless}
  2.126;                                  ! ASHRAE Taud {dimensionless}

