
OS:Version,
  {672fdfbb-895e-4f35-ba99-996abad56df8}, ! Handle
  0.9.3;                                  ! Version Identifier

OS:SizingPeriod:DesignDay,
  {4196f411-c0f9-4d20-a6dd-50dcb4bbf23b}, ! Handle
  Northway Airport Ann Htg Wind 99% Condns WS=>MCDB, ! Name
  -22.2,                                  ! Maximum Dry-Bulb Temperature {C}
  0,                                      ! Daily Dry-Bulb Temperature Range {deltaC}
  -22.2,                                  ! Humidity Indicating Conditions at Maximum Dry-Bulb {BasedOnField A3}
  95209,                                  ! Barometric Pressure {Pa}
  6,                                      ! Wind Speed {m/s}
  180,                                    ! Wind Direction {deg}
  0,                                      ! Sky Clearness
  0,                                      ! Rain Indicator
  0,                                      ! Snow Indicator
  21,                                     ! Day of Month
  1,                                      ! Month
  WinterDesignDay,                        ! Day Type
  0,                                      ! Daylight Saving Time Indicator
  Wetbulb,                                ! Humidity Indicating Type
  ,                                       ! Humidity Indicating Day Schedule Name
  DefaultMultipliers,                     ! Dry-Bulb Temperature Range Modifier Type
  ,                                       ! Dry-Bulb Temperature Range Modifier Schedule Name
  ASHRAEClearSky;                         ! Solar Model Indicator

OS:ComponentData,
  {3ce2d9d3-717f-4e95-bec9-eeaa502e91e3}, ! Handle
  Component Data 1,                       ! Name
  {efea07a3-5f15-4fbd-8a19-6868c97ed89c}, ! UUID
  {dd9e9c91-c46d-4551-a448-3ab84d3b4f33}, ! Version UUID
  1366305467,                             ! Creation Timestamp
  1366305467,                             ! Version Timestamp
  {4196f411-c0f9-4d20-a6dd-50dcb4bbf23b}; ! Name of Object 1

