
OS:Version,
  {07e8f1d5-3a08-41c0-bd8d-8194ba788387}, ! Handle
  0.9.3;                                  ! Version Identifier

OS:SizingPeriod:DesignDay,
  {f7f202ac-482c-4fe2-b82e-023a81639bf7}, ! Handle
  New Orleans Lakefront Ap Ann Clg 2% Condns DP=>MDB, ! Name
  28.9,                                   ! Maximum Dry-Bulb Temperature {C}
  6.6,                                    ! Daily Dry-Bulb Temperature Range {deltaC}
  25.2,                                   ! Humidity Indicating Conditions at Maximum Dry-Bulb {BasedOnField A3}
  101289,                                 ! Barometric Pressure {Pa}
  3.8,                                    ! Wind Speed {m/s}
  320,                                    ! Wind Direction {deg}
  0,                                      ! Sky Clearness
  0,                                      ! Rain Indicator
  0,                                      ! Snow Indicator
  21,                                     ! Day of Month
  8,                                      ! Month
  SummerDesignDay,                        ! Day Type
  0,                                      ! Daylight Saving Time Indicator
  Dewpoint,                               ! Humidity Indicating Type
  ,                                       ! Humidity Indicating Day Schedule Name
  DefaultMultipliers,                     ! Dry-Bulb Temperature Range Modifier Type
  ,                                       ! Dry-Bulb Temperature Range Modifier Schedule Name
  ASHRAETau,                              ! Solar Model Indicator
  ,                                       ! Beam Solar Day Schedule Name
  ,                                       ! Diffuse Solar Day Schedule Name
  0.551,                                  ! ASHRAE Taub {dimensionless}
  1.829;                                  ! ASHRAE Taud {dimensionless}

OS:ComponentData,
  {af4febf7-f3b3-4f0b-9de3-0887da786a92}, ! Handle
  Component Data 1,                       ! Name
  {1fa8bcc2-c627-48c1-a36e-38706070a666}, ! UUID
  {51f24a20-485f-486b-843a-7f2e3cd7bee6}, ! Version UUID
  1366307745,                             ! Creation Timestamp
  1366307745,                             ! Version Timestamp
  {f7f202ac-482c-4fe2-b82e-023a81639bf7}; ! Name of Object 1

