
OS:Version,
  {c289ab1f-a1c6-4e0d-878e-b95a478b8d57}, ! Handle
  0.9.3;                                  ! Version Identifier

OS:SizingPeriod:DesignDay,
  {e7512b3b-ff81-4a0a-b0f4-6c10683bea35}, ! Handle
  Waterville  Awos Ann Clg 2% Condns DP=>MDB, ! Name
  23.6,                                   ! Maximum Dry-Bulb Temperature {C}
  10.6,                                   ! Daily Dry-Bulb Temperature Range {deltaC}
  18.8,                                   ! Humidity Indicating Conditions at Maximum Dry-Bulb {BasedOnField A3}
  100118,                                 ! Barometric Pressure {Pa}
  3.5,                                    ! Wind Speed {m/s}
  240,                                    ! Wind Direction {deg}
  0,                                      ! Sky Clearness
  0,                                      ! Rain Indicator
  0,                                      ! Snow Indicator
  21,                                     ! Day of Month
  7,                                      ! Month
  SummerDesignDay,                        ! Day Type
  0,                                      ! Daylight Saving Time Indicator
  Dewpoint,                               ! Humidity Indicating Type
  ,                                       ! Humidity Indicating Day Schedule Name
  DefaultMultipliers,                     ! Dry-Bulb Temperature Range Modifier Type
  ,                                       ! Dry-Bulb Temperature Range Modifier Schedule Name
  ASHRAETau,                              ! Solar Model Indicator
  ,                                       ! Beam Solar Day Schedule Name
  ,                                       ! Diffuse Solar Day Schedule Name
  0.457,                                  ! ASHRAE Taub {dimensionless}
  2.007;                                  ! ASHRAE Taud {dimensionless}

OS:ComponentData,
  {98c94022-8d5c-45a8-92aa-a700719989d4}, ! Handle
  Component Data 1,                       ! Name
  {87694240-c3e6-4d6d-a242-8171724dd7c3}, ! UUID
  {68cb4dd7-80b2-414d-ab96-7020190f17c8}, ! Version UUID
  1366307931,                             ! Creation Timestamp
  1366307931,                             ! Version Timestamp
  {e7512b3b-ff81-4a0a-b0f4-6c10683bea35}; ! Name of Object 1

