
OS:Version,
  {302a142c-7b44-4864-adbd-2185b270778c}, ! Handle
  0.9.3;                                  ! Version Identifier

OS:SizingPeriod:DesignDay,
  {3d7a840e-a293-4d7f-b539-02607dd09407}, ! Handle
  Spencer Ann Clg .4% Condns DP=>MDB,     ! Name
  28.7,                                   ! Maximum Dry-Bulb Temperature {C}
  11.3,                                   ! Daily Dry-Bulb Temperature Range {deltaC}
  23.7,                                   ! Humidity Indicating Conditions at Maximum Dry-Bulb {BasedOnField A3}
  96519,                                  ! Barometric Pressure {Pa}
  6.1,                                    ! Wind Speed {m/s}
  180,                                    ! Wind Direction {deg}
  0,                                      ! Sky Clearness
  0,                                      ! Rain Indicator
  0,                                      ! Snow Indicator
  21,                                     ! Day of Month
  7,                                      ! Month
  SummerDesignDay,                        ! Day Type
  0,                                      ! Daylight Saving Time Indicator
  Dewpoint,                               ! Humidity Indicating Type
  ,                                       ! Humidity Indicating Day Schedule Name
  DefaultMultipliers,                     ! Dry-Bulb Temperature Range Modifier Type
  ,                                       ! Dry-Bulb Temperature Range Modifier Schedule Name
  ASHRAETau,                              ! Solar Model Indicator
  ,                                       ! Beam Solar Day Schedule Name
  ,                                       ! Diffuse Solar Day Schedule Name
  0.401,                                  ! ASHRAE Taub {dimensionless}
  2.247;                                  ! ASHRAE Taud {dimensionless}

OS:ComponentData,
  {bf00ed83-81f1-4b43-9da3-7c0b2f4d0269}, ! Handle
  Component Data 1,                       ! Name
  {65bdf06a-fc35-4af5-98f2-df142fe6a7ac}, ! UUID
  {78a99212-940b-444b-a1f6-6dd482f4a3bb}, ! Version UUID
  1366307243,                             ! Creation Timestamp
  1366307243,                             ! Version Timestamp
  {3d7a840e-a293-4d7f-b539-02607dd09407}; ! Name of Object 1

