
OS:Version,
  {65460886-decf-4fc8-bf6b-52e580b1b8c8}, ! Handle
  0.9.3;                                  ! Version Identifier

OS:SizingPeriod:DesignDay,
  {ef42bb0e-a4f3-4f52-a628-c97df3e1d118}, ! Handle
  NEWARK Ann Clg 1% Condns DP=>MDB,       ! Name
  27.1,                                   ! Maximum Dry-Bulb Temperature {C}
  8.9,                                    ! Daily Dry-Bulb Temperature Range {deltaC}
  23.1,                                   ! Humidity Indicating Conditions at Maximum Dry-Bulb {BasedOnField A3}
  101217,                                 ! Barometric Pressure {Pa}
  5.8,                                    ! Wind Speed {m/s}
  250,                                    ! Wind Direction {deg}
  0,                                      ! Sky Clearness
  0,                                      ! Rain Indicator
  0,                                      ! Snow Indicator
  21,                                     ! Day of Month
  7,                                      ! Month
  SummerDesignDay,                        ! Day Type
  0,                                      ! Daylight Saving Time Indicator
  Dewpoint,                               ! Humidity Indicating Type
  ,                                       ! Humidity Indicating Day Schedule Name
  DefaultMultipliers,                     ! Dry-Bulb Temperature Range Modifier Type
  ,                                       ! Dry-Bulb Temperature Range Modifier Schedule Name
  ASHRAETau,                              ! Solar Model Indicator
  ,                                       ! Beam Solar Day Schedule Name
  ,                                       ! Diffuse Solar Day Schedule Name
  0.528,                                  ! ASHRAE Taub {dimensionless}
  1.831;                                  ! ASHRAE Taud {dimensionless}

OS:ComponentData,
  {a3496681-1a66-4788-973f-c517efc28d7f}, ! Handle
  Component Data 1,                       ! Name
  {5f16fbd4-fc61-4771-bfcc-e68603da3059}, ! UUID
  {88f9e907-e8e9-4dd7-8581-ec94be9aae30}, ! Version UUID
  1366309328,                             ! Creation Timestamp
  1366309328,                             ! Version Timestamp
  {ef42bb0e-a4f3-4f52-a628-c97df3e1d118}; ! Name of Object 1

