
OS:Version,
  {b0b6ff96-3950-40fe-bb97-dad1a6c9f7a4}, ! Handle
  0.9.3;                                  ! Version Identifier

OS:SizingPeriod:DesignDay,
  {3de783c1-efe9-495a-b4f8-03132d7ee9cf}, ! Handle
  Philadelphia/Willow Gr Ann Clg .4% Condns Enth=>MDB, ! Name
  31.7,                                   ! Maximum Dry-Bulb Temperature {C}
  9.4,                                    ! Daily Dry-Bulb Temperature Range {deltaC}
  79100,                                  ! Humidity Indicating Conditions at Maximum Dry-Bulb {BasedOnField A3}
  100011,                                 ! Barometric Pressure {Pa}
  5,                                      ! Wind Speed {m/s}
  240,                                    ! Wind Direction {deg}
  0,                                      ! Sky Clearness
  0,                                      ! Rain Indicator
  0,                                      ! Snow Indicator
  21,                                     ! Day of Month
  7,                                      ! Month
  SummerDesignDay,                        ! Day Type
  0,                                      ! Daylight Saving Time Indicator
  Enthalpy,                               ! Humidity Indicating Type
  ,                                       ! Humidity Indicating Day Schedule Name
  DefaultMultipliers,                     ! Dry-Bulb Temperature Range Modifier Type
  ,                                       ! Dry-Bulb Temperature Range Modifier Schedule Name
  ASHRAETau,                              ! Solar Model Indicator
  ,                                       ! Beam Solar Day Schedule Name
  ,                                       ! Diffuse Solar Day Schedule Name
  0.55,                                   ! ASHRAE Taub {dimensionless}
  1.776;                                  ! ASHRAE Taud {dimensionless}

OS:ComponentData,
  {472996c6-7a37-4f71-8ad9-05b1c31b990e}, ! Handle
  Component Data 1,                       ! Name
  {d0728cab-6c9d-42c6-a233-3fa137fb8488}, ! UUID
  {5d1c2fc9-553e-4463-af1c-b63450d78a48}, ! Version UUID
  1366310220,                             ! Creation Timestamp
  1366310220,                             ! Version Timestamp
  {3de783c1-efe9-495a-b4f8-03132d7ee9cf}; ! Name of Object 1

