
OS:Version,
  {d50104b8-b770-47f8-afdc-323dc70f6ced}, ! Handle
  0.9.3;                                  ! Version Identifier

OS:SizingPeriod:DesignDay,
  {2d390c58-c3ff-4010-8f90-af6125536172}, ! Handle
  Montpelier Ap Ann Clg 1% Condns Enth=>MDB, ! Name
  26.1,                                   ! Maximum Dry-Bulb Temperature {C}
  11.3,                                   ! Daily Dry-Bulb Temperature Range {deltaC}
  63900,                                  ! Humidity Indicating Conditions at Maximum Dry-Bulb {BasedOnField A3}
  97272,                                  ! Barometric Pressure {Pa}
  3.8,                                    ! Wind Speed {m/s}
  220,                                    ! Wind Direction {deg}
  0,                                      ! Sky Clearness
  0,                                      ! Rain Indicator
  0,                                      ! Snow Indicator
  21,                                     ! Day of Month
  7,                                      ! Month
  SummerDesignDay,                        ! Day Type
  0,                                      ! Daylight Saving Time Indicator
  Enthalpy,                               ! Humidity Indicating Type
  ,                                       ! Humidity Indicating Day Schedule Name
  DefaultMultipliers,                     ! Dry-Bulb Temperature Range Modifier Type
  ,                                       ! Dry-Bulb Temperature Range Modifier Schedule Name
  ASHRAETau,                              ! Solar Model Indicator
  ,                                       ! Beam Solar Day Schedule Name
  ,                                       ! Diffuse Solar Day Schedule Name
  0.435,                                  ! ASHRAE Taub {dimensionless}
  2.069;                                  ! ASHRAE Taud {dimensionless}

OS:ComponentData,
  {def8c604-a07a-49cb-a5e3-0eb878a885a7}, ! Handle
  Component Data 1,                       ! Name
  {8a0e60c2-cfa2-425b-8946-f1123885ed5b}, ! UUID
  {253935dc-84d5-47ad-9504-a57c86fa6a57}, ! Version UUID
  1366311252,                             ! Creation Timestamp
  1366311252,                             ! Version Timestamp
  {2d390c58-c3ff-4010-8f90-af6125536172}; ! Name of Object 1

