
OS:Version,
  {eb78c08c-474a-4999-ac3f-c1a4448e0a34}, ! Handle
  0.9.3;                                  ! Version Identifier

OS:SizingPeriod:DesignDay,
  {3da62c18-acee-4255-b3ef-eb6c98882e4b}, ! Handle
  Univ Of Illinois Wi  Bondvill Ann Clg 1% Condns DP=>MDB, ! Name
  28.6,                                   ! Maximum Dry-Bulb Temperature {C}
  10.8,                                   ! Daily Dry-Bulb Temperature Range {deltaC}
  24,                                     ! Humidity Indicating Conditions at Maximum Dry-Bulb {BasedOnField A3}
  98792,                                  ! Barometric Pressure {Pa}
  5.3,                                    ! Wind Speed {m/s}
  240,                                    ! Wind Direction {deg}
  0,                                      ! Sky Clearness
  0,                                      ! Rain Indicator
  0,                                      ! Snow Indicator
  21,                                     ! Day of Month
  7,                                      ! Month
  SummerDesignDay,                        ! Day Type
  0,                                      ! Daylight Saving Time Indicator
  Dewpoint,                               ! Humidity Indicating Type
  ,                                       ! Humidity Indicating Day Schedule Name
  DefaultMultipliers,                     ! Dry-Bulb Temperature Range Modifier Type
  ,                                       ! Dry-Bulb Temperature Range Modifier Schedule Name
  ASHRAETau,                              ! Solar Model Indicator
  ,                                       ! Beam Solar Day Schedule Name
  ,                                       ! Diffuse Solar Day Schedule Name
  0.458,                                  ! ASHRAE Taub {dimensionless}
  2.034;                                  ! ASHRAE Taud {dimensionless}

OS:ComponentData,
  {622fef10-029b-44c2-aba0-2b4df5623e56}, ! Handle
  Component Data 1,                       ! Name
  {52730cdd-a071-4407-a384-399003e45cbf}, ! UUID
  {9bab74ca-7c7f-453d-8ef5-997101b25277}, ! Version UUID
  1366307418,                             ! Creation Timestamp
  1366307418,                             ! Version Timestamp
  {3da62c18-acee-4255-b3ef-eb6c98882e4b}; ! Name of Object 1

