
OS:Version,
  {50dabc10-c182-4a38-bf76-0ab8357cd1e2}, ! Handle
  0.9.3;                                  ! Version Identifier

OS:SizingPeriod:DesignDay,
  {b0dea468-75e2-4eec-9a43-73851b45de2c}, ! Handle
  Poughkeepsie Dutchess Co Ap Ann Clg 2% Condns WB=>MDB, ! Name
  27.8,                                   ! Maximum Dry-Bulb Temperature {C}
  12.4,                                   ! Daily Dry-Bulb Temperature Range {deltaC}
  23,                                     ! Humidity Indicating Conditions at Maximum Dry-Bulb {BasedOnField A3}
  100762,                                 ! Barometric Pressure {Pa}
  3.9,                                    ! Wind Speed {m/s}
  240,                                    ! Wind Direction {deg}
  0,                                      ! Sky Clearness
  0,                                      ! Rain Indicator
  0,                                      ! Snow Indicator
  21,                                     ! Day of Month
  7,                                      ! Month
  SummerDesignDay,                        ! Day Type
  0,                                      ! Daylight Saving Time Indicator
  Wetbulb,                                ! Humidity Indicating Type
  ,                                       ! Humidity Indicating Day Schedule Name
  DefaultMultipliers,                     ! Dry-Bulb Temperature Range Modifier Type
  ,                                       ! Dry-Bulb Temperature Range Modifier Schedule Name
  ASHRAETau,                              ! Solar Model Indicator
  ,                                       ! Beam Solar Day Schedule Name
  ,                                       ! Diffuse Solar Day Schedule Name
  0.49,                                   ! ASHRAE Taub {dimensionless}
  1.93;                                   ! ASHRAE Taud {dimensionless}

OS:ComponentData,
  {738043c1-66cb-4bfa-bb31-5b7e1bcbb927}, ! Handle
  Component Data 1,                       ! Name
  {144623a6-32cc-4407-8960-0615c509caa5}, ! UUID
  {d7282835-d663-49b9-b8a2-937f7477a5bc}, ! Version UUID
  1366309705,                             ! Creation Timestamp
  1366309705,                             ! Version Timestamp
  {b0dea468-75e2-4eec-9a43-73851b45de2c}; ! Name of Object 1

