
OS:Version,
  {6f5b6075-ae07-41e6-89cf-d1f9da29da99}, ! Handle
  0.9.3;                                  ! Version Identifier

OS:SizingPeriod:DesignDay,
  {a6e86e14-0ece-404e-aea5-bf08e225a34f}, ! Handle
  Rome R B Russell Ap Ann Clg 2% Condns DB=>MWB, ! Name
  32.8,                                   ! Maximum Dry-Bulb Temperature {C}
  11.6,                                   ! Daily Dry-Bulb Temperature Range {deltaC}
  23.3,                                   ! Humidity Indicating Conditions at Maximum Dry-Bulb {BasedOnField A3}
  99004,                                  ! Barometric Pressure {Pa}
  2.4,                                    ! Wind Speed {m/s}
  280,                                    ! Wind Direction {deg}
  0,                                      ! Sky Clearness
  0,                                      ! Rain Indicator
  0,                                      ! Snow Indicator
  21,                                     ! Day of Month
  7,                                      ! Month
  SummerDesignDay,                        ! Day Type
  0,                                      ! Daylight Saving Time Indicator
  Wetbulb,                                ! Humidity Indicating Type
  ,                                       ! Humidity Indicating Day Schedule Name
  DefaultMultipliers,                     ! Dry-Bulb Temperature Range Modifier Type
  ,                                       ! Dry-Bulb Temperature Range Modifier Schedule Name
  ASHRAETau,                              ! Solar Model Indicator
  ,                                       ! Beam Solar Day Schedule Name
  ,                                       ! Diffuse Solar Day Schedule Name
  0.577,                                  ! ASHRAE Taub {dimensionless}
  1.731;                                  ! ASHRAE Taud {dimensionless}

OS:ComponentData,
  {38146e49-698f-412d-960c-3d2daac82bd3}, ! Handle
  Component Data 1,                       ! Name
  {db0902fd-5db1-4976-9438-fe1da3c137db}, ! UUID
  {273f7cd3-3ec9-4e68-9d51-4e9e830af683}, ! Version UUID
  1366307035,                             ! Creation Timestamp
  1366307035,                             ! Version Timestamp
  {a6e86e14-0ece-404e-aea5-bf08e225a34f}; ! Name of Object 1

