
OS:Version,
  {cc4c48ff-c173-437b-bcaf-1a2030fc9465}, ! Handle
  0.9.3;                                  ! Version Identifier

OS:SizingPeriod:DesignDay,
  {98983355-2609-4d43-828d-cf34804f2526}, ! Handle
  Wiscasset Ann Clg .4% Condns DP=>MDB,   ! Name
  25.5,                                   ! Maximum Dry-Bulb Temperature {C}
  11.1,                                   ! Daily Dry-Bulb Temperature Range {deltaC}
  21.5,                                   ! Humidity Indicating Conditions at Maximum Dry-Bulb {BasedOnField A3}
  101073,                                 ! Barometric Pressure {Pa}
  3.2,                                    ! Wind Speed {m/s}
  200,                                    ! Wind Direction {deg}
  0,                                      ! Sky Clearness
  0,                                      ! Rain Indicator
  0,                                      ! Snow Indicator
  21,                                     ! Day of Month
  7,                                      ! Month
  SummerDesignDay,                        ! Day Type
  0,                                      ! Daylight Saving Time Indicator
  Dewpoint,                               ! Humidity Indicating Type
  ,                                       ! Humidity Indicating Day Schedule Name
  DefaultMultipliers,                     ! Dry-Bulb Temperature Range Modifier Type
  ,                                       ! Dry-Bulb Temperature Range Modifier Schedule Name
  ASHRAETau,                              ! Solar Model Indicator
  ,                                       ! Beam Solar Day Schedule Name
  ,                                       ! Diffuse Solar Day Schedule Name
  0.473,                                  ! ASHRAE Taub {dimensionless}
  1.988;                                  ! ASHRAE Taud {dimensionless}

OS:ComponentData,
  {d452689c-efbc-4274-8cbe-6ba9b5497b77}, ! Handle
  Component Data 1,                       ! Name
  {5316b235-930b-412b-b24e-948bdae0e05a}, ! UUID
  {72069ab7-7bc3-4c8b-8412-08730dc5a22e}, ! Version UUID
  1366307935,                             ! Creation Timestamp
  1366307935,                             ! Version Timestamp
  {98983355-2609-4d43-828d-cf34804f2526}; ! Name of Object 1

