
OS:Version,
  {2d58929f-4dee-416c-8894-fe33911bfd92}, ! Handle
  0.9.3;                                  ! Version Identifier

OS:SizingPeriod:DesignDay,
  {e9e1c073-075f-45de-a8b3-a10b3c590de5}, ! Handle
  Truckee Tahoe Ann Clg 1% Condns DB=>MWB, ! Name
  29.9,                                   ! Maximum Dry-Bulb Temperature {C}
  22.7,                                   ! Daily Dry-Bulb Temperature Range {deltaC}
  14,                                     ! Humidity Indicating Conditions at Maximum Dry-Bulb {BasedOnField A3}
  81509,                                  ! Barometric Pressure {Pa}
  4.3,                                    ! Wind Speed {m/s}
  230,                                    ! Wind Direction {deg}
  0,                                      ! Sky Clearness
  0,                                      ! Rain Indicator
  0,                                      ! Snow Indicator
  21,                                     ! Day of Month
  7,                                      ! Month
  SummerDesignDay,                        ! Day Type
  0,                                      ! Daylight Saving Time Indicator
  Wetbulb,                                ! Humidity Indicating Type
  ,                                       ! Humidity Indicating Day Schedule Name
  DefaultMultipliers,                     ! Dry-Bulb Temperature Range Modifier Type
  ,                                       ! Dry-Bulb Temperature Range Modifier Schedule Name
  ASHRAETau,                              ! Solar Model Indicator
  ,                                       ! Beam Solar Day Schedule Name
  ,                                       ! Diffuse Solar Day Schedule Name
  0.344,                                  ! ASHRAE Taub {dimensionless}
  2.382;                                  ! ASHRAE Taud {dimensionless}

OS:ComponentData,
  {faeba164-b5fd-4142-8d49-210049e1bf51}, ! Handle
  Component Data 1,                       ! Name
  {dd3a04fa-f1fe-4867-8f39-afeb2eb4e338}, ! UUID
  {84de7e8e-50f2-4e19-bfde-462fce9f1f9c}, ! Version UUID
  1366306625,                             ! Creation Timestamp
  1366306625,                             ! Version Timestamp
  {e9e1c073-075f-45de-a8b3-a10b3c590de5}; ! Name of Object 1

