
OS:Version,
  {9549be9f-8f3c-4fae-9344-79d7b02aa538}, ! Handle
  0.9.3;                                  ! Version Identifier

OS:SizingPeriod:DesignDay,
  {5d71ef13-f724-47f5-9954-cea139609194}, ! Handle
  Worthington  Awos Ann Clg 1% Condns DB=>MWB, ! Name
  29.5,                                   ! Maximum Dry-Bulb Temperature {C}
  9.9,                                    ! Daily Dry-Bulb Temperature Range {deltaC}
  21.6,                                   ! Humidity Indicating Conditions at Maximum Dry-Bulb {BasedOnField A3}
  95690,                                  ! Barometric Pressure {Pa}
  6.7,                                    ! Wind Speed {m/s}
  190,                                    ! Wind Direction {deg}
  0,                                      ! Sky Clearness
  0,                                      ! Rain Indicator
  0,                                      ! Snow Indicator
  21,                                     ! Day of Month
  7,                                      ! Month
  SummerDesignDay,                        ! Day Type
  0,                                      ! Daylight Saving Time Indicator
  Wetbulb,                                ! Humidity Indicating Type
  ,                                       ! Humidity Indicating Day Schedule Name
  DefaultMultipliers,                     ! Dry-Bulb Temperature Range Modifier Type
  ,                                       ! Dry-Bulb Temperature Range Modifier Schedule Name
  ASHRAETau,                              ! Solar Model Indicator
  ,                                       ! Beam Solar Day Schedule Name
  ,                                       ! Diffuse Solar Day Schedule Name
  0.393,                                  ! ASHRAE Taub {dimensionless}
  2.274;                                  ! ASHRAE Taud {dimensionless}

OS:ComponentData,
  {98534d34-a921-469c-a06a-38ffe57a1cc5}, ! Handle
  Component Data 1,                       ! Name
  {29badfea-d046-4066-ad2f-dfa6f8d0397b}, ! UUID
  {c696637c-7819-4da0-899d-e71fe87b3c6b}, ! Version UUID
  1366308469,                             ! Creation Timestamp
  1366308469,                             ! Version Timestamp
  {5d71ef13-f724-47f5-9954-cea139609194}; ! Name of Object 1

