
OS:Version,
  {0cdc6861-0b60-41a1-9cc9-0cf6362205dd}, ! Handle
  0.9.3;                                  ! Version Identifier

OS:SizingPeriod:DesignDay,
  {d42340b5-8143-4b9e-b20d-578bd9857c0d}, ! Handle
  TULSA Ann Clg .4% Condns DB=>MWB,       ! Name
  37.5,                                   ! Maximum Dry-Bulb Temperature {C}
  10.5,                                   ! Daily Dry-Bulb Temperature Range {deltaC}
  24.3,                                   ! Humidity Indicating Conditions at Maximum Dry-Bulb {BasedOnField A3}
  98875,                                  ! Barometric Pressure {Pa}
  4.9,                                    ! Wind Speed {m/s}
  190,                                    ! Wind Direction {deg}
  0,                                      ! Sky Clearness
  0,                                      ! Rain Indicator
  0,                                      ! Snow Indicator
  21,                                     ! Day of Month
  7,                                      ! Month
  SummerDesignDay,                        ! Day Type
  0,                                      ! Daylight Saving Time Indicator
  Wetbulb,                                ! Humidity Indicating Type
  ,                                       ! Humidity Indicating Day Schedule Name
  DefaultMultipliers,                     ! Dry-Bulb Temperature Range Modifier Type
  ,                                       ! Dry-Bulb Temperature Range Modifier Schedule Name
  ASHRAETau,                              ! Solar Model Indicator
  ,                                       ! Beam Solar Day Schedule Name
  ,                                       ! Diffuse Solar Day Schedule Name
  0.453,                                  ! ASHRAE Taub {dimensionless}
  2.105;                                  ! ASHRAE Taud {dimensionless}

OS:ComponentData,
  {46104e8b-f47d-4b8b-915d-90d029beb4ee}, ! Handle
  Component Data 1,                       ! Name
  {031f3b0e-dafc-41b1-a304-746027dcb0c9}, ! UUID
  {689c3779-2d33-4298-9794-ee15a7de8e73}, ! Version UUID
  1366309949,                             ! Creation Timestamp
  1366309949,                             ! Version Timestamp
  {d42340b5-8143-4b9e-b20d-578bd9857c0d}; ! Name of Object 1

