
OS:Version,
  {f3db058b-b2c6-4651-af96-142e34673b2d}, ! Handle
  0.9.3;                                  ! Version Identifier

OS:SizingPeriod:DesignDay,
  {73f3dcd7-2c00-4ab5-8a28-eaed76b9dd4f}, ! Handle
  Sherman-Denison Ann Clg 2% Condns WB=>MDB, ! Name
  32.5,                                   ! Maximum Dry-Bulb Temperature {C}
  13.1,                                   ! Daily Dry-Bulb Temperature Range {deltaC}
  25.1,                                   ! Humidity Indicating Conditions at Maximum Dry-Bulb {BasedOnField A3}
  98557,                                  ! Barometric Pressure {Pa}
  4,                                      ! Wind Speed {m/s}
  130,                                    ! Wind Direction {deg}
  0,                                      ! Sky Clearness
  0,                                      ! Rain Indicator
  0,                                      ! Snow Indicator
  21,                                     ! Day of Month
  8,                                      ! Month
  SummerDesignDay,                        ! Day Type
  0,                                      ! Daylight Saving Time Indicator
  Wetbulb,                                ! Humidity Indicating Type
  ,                                       ! Humidity Indicating Day Schedule Name
  DefaultMultipliers,                     ! Dry-Bulb Temperature Range Modifier Type
  ,                                       ! Dry-Bulb Temperature Range Modifier Schedule Name
  ASHRAETau,                              ! Solar Model Indicator
  ,                                       ! Beam Solar Day Schedule Name
  ,                                       ! Diffuse Solar Day Schedule Name
  0.477,                                  ! ASHRAE Taub {dimensionless}
  2.02;                                   ! ASHRAE Taud {dimensionless}

OS:ComponentData,
  {f54bf1c8-f899-4ed9-99e9-c1000e02e9d9}, ! Handle
  Component Data 1,                       ! Name
  {d494b0f1-ce1c-458c-8b57-123d3d284973}, ! UUID
  {7845c420-1ac5-447b-acd9-bf3d996808c5}, ! Version UUID
  1366310903,                             ! Creation Timestamp
  1366310903,                             ! Version Timestamp
  {73f3dcd7-2c00-4ab5-8a28-eaed76b9dd4f}; ! Name of Object 1

