
OS:Version,
  {6ef33048-2c31-4659-a35a-5c65cb9d55cc}, ! Handle
  0.9.3;                                  ! Version Identifier

OS:SizingPeriod:DesignDay,
  {d1a57930-3ebd-4b86-8d59-5acdbbceae05}, ! Handle
  Mobile Ann Htg 99.6% Condns DB,         ! Name
  -2.8,                                   ! Maximum Dry-Bulb Temperature {C}
  0,                                      ! Daily Dry-Bulb Temperature Range {deltaC}
  -2.8,                                   ! Humidity Indicating Conditions at Maximum Dry-Bulb {BasedOnField A3}
  100523,                                 ! Barometric Pressure {Pa}
  3.7,                                    ! Wind Speed {m/s}
  10,                                     ! Wind Direction {deg}
  0,                                      ! Sky Clearness
  0,                                      ! Rain Indicator
  0,                                      ! Snow Indicator
  21,                                     ! Day of Month
  1,                                      ! Month
  WinterDesignDay,                        ! Day Type
  0,                                      ! Daylight Saving Time Indicator
  Wetbulb,                                ! Humidity Indicating Type
  ,                                       ! Humidity Indicating Day Schedule Name
  DefaultMultipliers,                     ! Dry-Bulb Temperature Range Modifier Type
  ,                                       ! Dry-Bulb Temperature Range Modifier Schedule Name
  ASHRAEClearSky;                         ! Solar Model Indicator

OS:ComponentData,
  {72a682b6-c02f-4655-b766-2f17f0350103}, ! Handle
  Component Data 1,                       ! Name
  {e78bbf43-3cf1-4394-bd7f-3f14852cd7a8}, ! UUID
  {e4b22a6d-8b64-49c8-ad6c-5d04bd06974e}, ! Version UUID
  1366305713,                             ! Creation Timestamp
  1366305713,                             ! Version Timestamp
  {d1a57930-3ebd-4b86-8d59-5acdbbceae05}; ! Name of Object 1

