
OS:Version,
  {f8dc3b32-bc09-44bf-b70b-479435f53ff3}, ! Handle
  0.9.3;                                  ! Version Identifier

OS:SizingPeriod:DesignDay,
  {83a73a14-a480-43fe-9fb0-a174012af35c}, ! Handle
  Ogden Hill Afb Ann Clg 1% Condns DB=>MWB, ! Name
  32.7,                                   ! Maximum Dry-Bulb Temperature {C}
  12.8,                                   ! Daily Dry-Bulb Temperature Range {deltaC}
  15.9,                                   ! Humidity Indicating Conditions at Maximum Dry-Bulb {BasedOnField A3}
  84982,                                  ! Barometric Pressure {Pa}
  2.9,                                    ! Wind Speed {m/s}
  330,                                    ! Wind Direction {deg}
  0,                                      ! Sky Clearness
  0,                                      ! Rain Indicator
  0,                                      ! Snow Indicator
  21,                                     ! Day of Month
  7,                                      ! Month
  SummerDesignDay,                        ! Day Type
  0,                                      ! Daylight Saving Time Indicator
  Wetbulb,                                ! Humidity Indicating Type
  ,                                       ! Humidity Indicating Day Schedule Name
  DefaultMultipliers,                     ! Dry-Bulb Temperature Range Modifier Type
  ,                                       ! Dry-Bulb Temperature Range Modifier Schedule Name
  ASHRAETau,                              ! Solar Model Indicator
  ,                                       ! Beam Solar Day Schedule Name
  ,                                       ! Diffuse Solar Day Schedule Name
  0.419,                                  ! ASHRAE Taub {dimensionless}
  2.015;                                  ! ASHRAE Taud {dimensionless}

OS:ComponentData,
  {62bac7e9-3820-41d3-9c05-8a517a33ee33}, ! Handle
  Component Data 1,                       ! Name
  {53e44d90-93f5-4e88-b66e-77c15c2f9a81}, ! UUID
  {b5f6f5bc-1289-43b2-a680-69d63d85f296}, ! Version UUID
  1366310970,                             ! Creation Timestamp
  1366310970,                             ! Version Timestamp
  {83a73a14-a480-43fe-9fb0-a174012af35c}; ! Name of Object 1

