
OS:Version,
  {c9a922ff-4d7a-4a0c-b16f-af73999c8070}, ! Handle
  0.9.3;                                  ! Version Identifier

OS:SizingPeriod:DesignDay,
  {1c82b1ec-9c46-4e54-82f3-a62ed01ce5f9}, ! Handle
  Melbourne Regional Ap Ann Clg .4% Condns DB=>MWB, ! Name
  33.7,                                   ! Maximum Dry-Bulb Temperature {C}
  8.3,                                    ! Daily Dry-Bulb Temperature Range {deltaC}
  25.9,                                   ! Humidity Indicating Conditions at Maximum Dry-Bulb {BasedOnField A3}
  101193,                                 ! Barometric Pressure {Pa}
  4.8,                                    ! Wind Speed {m/s}
  280,                                    ! Wind Direction {deg}
  0,                                      ! Sky Clearness
  0,                                      ! Rain Indicator
  0,                                      ! Snow Indicator
  21,                                     ! Day of Month
  7,                                      ! Month
  SummerDesignDay,                        ! Day Type
  0,                                      ! Daylight Saving Time Indicator
  Wetbulb,                                ! Humidity Indicating Type
  ,                                       ! Humidity Indicating Day Schedule Name
  DefaultMultipliers,                     ! Dry-Bulb Temperature Range Modifier Type
  ,                                       ! Dry-Bulb Temperature Range Modifier Schedule Name
  ASHRAETau,                              ! Solar Model Indicator
  ,                                       ! Beam Solar Day Schedule Name
  ,                                       ! Diffuse Solar Day Schedule Name
  0.499,                                  ! ASHRAE Taub {dimensionless}
  1.991;                                  ! ASHRAE Taud {dimensionless}

OS:ComponentData,
  {5ad48c3e-790d-4908-80ea-782d0e23b79e}, ! Handle
  Component Data 1,                       ! Name
  {72b7a8d0-aa0e-48e4-8aa9-2a8844461dfa}, ! UUID
  {a5054df5-a259-45ae-bd61-f2b72ce3409a}, ! Version UUID
  1366306853,                             ! Creation Timestamp
  1366306853,                             ! Version Timestamp
  {1c82b1ec-9c46-4e54-82f3-a62ed01ce5f9}; ! Name of Object 1

