
OS:Version,
  {69f31809-88ae-4551-b518-904779fe9a26}, ! Handle
  0.9.3;                                  ! Version Identifier

OS:SizingPeriod:DesignDay,
  {37e7b64c-a776-4315-9541-f353ce43f994}, ! Handle
  MEMPHIS Ann Htg Wind 99.6% Condns WS=>MCDB, ! Name
  4.4,                                    ! Maximum Dry-Bulb Temperature {C}
  0,                                      ! Daily Dry-Bulb Temperature Range {deltaC}
  4.4,                                    ! Humidity Indicating Conditions at Maximum Dry-Bulb {BasedOnField A3}
  100284,                                 ! Barometric Pressure {Pa}
  10.9,                                   ! Wind Speed {m/s}
  0,                                      ! Wind Direction {deg}
  0,                                      ! Sky Clearness
  0,                                      ! Rain Indicator
  0,                                      ! Snow Indicator
  21,                                     ! Day of Month
  1,                                      ! Month
  WinterDesignDay,                        ! Day Type
  0,                                      ! Daylight Saving Time Indicator
  Wetbulb,                                ! Humidity Indicating Type
  ,                                       ! Humidity Indicating Day Schedule Name
  DefaultMultipliers,                     ! Dry-Bulb Temperature Range Modifier Type
  ,                                       ! Dry-Bulb Temperature Range Modifier Schedule Name
  ASHRAEClearSky;                         ! Solar Model Indicator

OS:ComponentData,
  {9ceba5e4-81f5-4b49-b598-ef0d68d8cfbc}, ! Handle
  Component Data 1,                       ! Name
  {04f1cc45-6cf8-4bb1-8db4-b5e064a677a7}, ! UUID
  {3430e3e9-7b96-49b0-8db5-293d2661f6a3}, ! Version UUID
  1366310520,                             ! Creation Timestamp
  1366310520,                             ! Version Timestamp
  {37e7b64c-a776-4315-9541-f353ce43f994}; ! Name of Object 1

