
OS:Version,
  {07624be4-dc54-4b62-8359-9b3a660e2760}, ! Handle
  0.9.3;                                  ! Version Identifier

OS:SizingPeriod:DesignDay,
  {5d19b050-38b4-43a6-8ea6-cc547aed50b5}, ! Handle
  Somerset Awos Ann Clg 1% Condns DB=>MWB, ! Name
  33.4,                                   ! Maximum Dry-Bulb Temperature {C}
  11.7,                                   ! Daily Dry-Bulb Temperature Range {deltaC}
  23.6,                                   ! Humidity Indicating Conditions at Maximum Dry-Bulb {BasedOnField A3}
  97971,                                  ! Barometric Pressure {Pa}
  2.3,                                    ! Wind Speed {m/s}
  250,                                    ! Wind Direction {deg}
  0,                                      ! Sky Clearness
  0,                                      ! Rain Indicator
  0,                                      ! Snow Indicator
  21,                                     ! Day of Month
  7,                                      ! Month
  SummerDesignDay,                        ! Day Type
  0,                                      ! Daylight Saving Time Indicator
  Wetbulb,                                ! Humidity Indicating Type
  ,                                       ! Humidity Indicating Day Schedule Name
  DefaultMultipliers,                     ! Dry-Bulb Temperature Range Modifier Type
  ,                                       ! Dry-Bulb Temperature Range Modifier Schedule Name
  ASHRAETau,                              ! Solar Model Indicator
  ,                                       ! Beam Solar Day Schedule Name
  ,                                       ! Diffuse Solar Day Schedule Name
  0.505,                                  ! ASHRAE Taub {dimensionless}
  1.881;                                  ! ASHRAE Taud {dimensionless}

OS:ComponentData,
  {c5880777-90ec-4dfe-98b7-0a437e7a69e4}, ! Handle
  Component Data 1,                       ! Name
  {b987ecbc-5c3c-4985-864b-101c4d297897}, ! UUID
  {c917360f-85e7-497d-9b78-8e8053f131a3}, ! Version UUID
  1366307687,                             ! Creation Timestamp
  1366307687,                             ! Version Timestamp
  {5d19b050-38b4-43a6-8ea6-cc547aed50b5}; ! Name of Object 1

