
OS:Version,
  {490804dc-8162-4c6c-b8f1-45b3d83a0ddc}, ! Handle
  0.9.3;                                  ! Version Identifier

OS:SizingPeriod:DesignDay,
  {64887590-6df4-46fa-8553-2800c73565c7}, ! Handle
  RENO Ann Clg .4% Condns WB=>MDB,        ! Name
  31.8,                                   ! Maximum Dry-Bulb Temperature {C}
  18.8,                                   ! Daily Dry-Bulb Temperature Range {deltaC}
  17.8,                                   ! Humidity Indicating Conditions at Maximum Dry-Bulb {BasedOnField A3}
  86219,                                  ! Barometric Pressure {Pa}
  4.5,                                    ! Wind Speed {m/s}
  270,                                    ! Wind Direction {deg}
  0,                                      ! Sky Clearness
  0,                                      ! Rain Indicator
  0,                                      ! Snow Indicator
  21,                                     ! Day of Month
  7,                                      ! Month
  SummerDesignDay,                        ! Day Type
  0,                                      ! Daylight Saving Time Indicator
  Wetbulb,                                ! Humidity Indicating Type
  ,                                       ! Humidity Indicating Day Schedule Name
  DefaultMultipliers,                     ! Dry-Bulb Temperature Range Modifier Type
  ,                                       ! Dry-Bulb Temperature Range Modifier Schedule Name
  ASHRAETau,                              ! Solar Model Indicator
  ,                                       ! Beam Solar Day Schedule Name
  ,                                       ! Diffuse Solar Day Schedule Name
  0.398,                                  ! ASHRAE Taub {dimensionless}
  2.123;                                  ! ASHRAE Taud {dimensionless}

OS:ComponentData,
  {48233c31-d384-48cb-acc4-7c3142faa15f}, ! Handle
  Component Data 1,                       ! Name
  {ed38884c-9049-44a9-9dac-d255e5ae86fb}, ! UUID
  {c5d93ddf-97de-4f95-a794-5a48bb5bf81f}, ! Version UUID
  1366309541,                             ! Creation Timestamp
  1366309541,                             ! Version Timestamp
  {64887590-6df4-46fa-8553-2800c73565c7}; ! Name of Object 1

