
OS:Version,
  {6aa02f0e-8550-4c05-aaa2-693d8e2c90e1}, ! Handle
  0.9.3;                                  ! Version Identifier

OS:SizingPeriod:DesignDay,
  {b366b77d-bc5b-4c3a-9c51-79f20a5afe82}, ! Handle
  Winston Salem Reynolds Ap Ann Hum_n 99% Condns DP=>MCDB, ! Name
  -1.4,                                   ! Maximum Dry-Bulb Temperature {C}
  0,                                      ! Daily Dry-Bulb Temperature Range {deltaC}
  -16,                                    ! Humidity Indicating Conditions at Maximum Dry-Bulb {BasedOnField A3}
  97819,                                  ! Barometric Pressure {Pa}
  3.4,                                    ! Wind Speed {m/s}
  290,                                    ! Wind Direction {deg}
  0,                                      ! Sky Clearness
  0,                                      ! Rain Indicator
  0,                                      ! Snow Indicator
  21,                                     ! Day of Month
  1,                                      ! Month
  WinterDesignDay,                        ! Day Type
  0,                                      ! Daylight Saving Time Indicator
  Dewpoint,                               ! Humidity Indicating Type
  ,                                       ! Humidity Indicating Day Schedule Name
  DefaultMultipliers,                     ! Dry-Bulb Temperature Range Modifier Type
  ,                                       ! Dry-Bulb Temperature Range Modifier Schedule Name
  ASHRAEClearSky;                         ! Solar Model Indicator

OS:ComponentData,
  {3aeddde5-02ea-4c93-9ae4-310bdfb60cc9}, ! Handle
  Component Data 1,                       ! Name
  {48335463-2287-4a50-b383-fd82ad905251}, ! UUID
  {213a4c19-fe97-4b31-b92a-a2b1b3147836}, ! Version UUID
  1366308993,                             ! Creation Timestamp
  1366308993,                             ! Version Timestamp
  {b366b77d-bc5b-4c3a-9c51-79f20a5afe82}; ! Name of Object 1

