
OS:Version,
  {f2227ccc-6011-4c95-9272-cfce91618933}, ! Handle
  0.9.3;                                  ! Version Identifier

OS:SizingPeriod:DesignDay,
  {b18d0751-7349-4d53-b077-a9d12295d108}, ! Handle
  Macon Middle Ga Regional Ap Ann Clg 1% Condns DP=>MDB, ! Name
  28,                                     ! Maximum Dry-Bulb Temperature {C}
  11.1,                                   ! Daily Dry-Bulb Temperature Range {deltaC}
  24,                                     ! Humidity Indicating Conditions at Maximum Dry-Bulb {BasedOnField A3}
  100034,                                 ! Barometric Pressure {Pa}
  3.6,                                    ! Wind Speed {m/s}
  300,                                    ! Wind Direction {deg}
  0,                                      ! Sky Clearness
  0,                                      ! Rain Indicator
  0,                                      ! Snow Indicator
  21,                                     ! Day of Month
  7,                                      ! Month
  SummerDesignDay,                        ! Day Type
  0,                                      ! Daylight Saving Time Indicator
  Dewpoint,                               ! Humidity Indicating Type
  ,                                       ! Humidity Indicating Day Schedule Name
  DefaultMultipliers,                     ! Dry-Bulb Temperature Range Modifier Type
  ,                                       ! Dry-Bulb Temperature Range Modifier Schedule Name
  ASHRAETau,                              ! Solar Model Indicator
  ,                                       ! Beam Solar Day Schedule Name
  ,                                       ! Diffuse Solar Day Schedule Name
  0.549,                                  ! ASHRAE Taub {dimensionless}
  1.812;                                  ! ASHRAE Taud {dimensionless}

OS:ComponentData,
  {42474b30-038e-41ad-8804-cdfdfe388872}, ! Handle
  Component Data 1,                       ! Name
  {523b449f-975d-41b1-b1cf-3a5cc49bdfce}, ! UUID
  {d14be8be-e606-4014-b58c-24060a5eeb0d}, ! Version UUID
  1366307024,                             ! Creation Timestamp
  1366307024,                             ! Version Timestamp
  {b18d0751-7349-4d53-b077-a9d12295d108}; ! Name of Object 1

