
OS:Version,
  {845b0f4a-55d5-4a4a-af7d-540b073b9431}, ! Handle
  0.9.3;                                  ! Version Identifier

OS:SizingPeriod:DesignDay,
  {2ea49785-3f9b-4a94-a116-36d2a45f3fde}, ! Handle
  Sheridan County Arpt Ann Clg 1% Condns Enth=>MDB, ! Name
  29.4,                                   ! Maximum Dry-Bulb Temperature {C}
  17.2,                                   ! Daily Dry-Bulb Temperature Range {deltaC}
  57900,                                  ! Humidity Indicating Conditions at Maximum Dry-Bulb {BasedOnField A3}
  87630,                                  ! Barometric Pressure {Pa}
  3.7,                                    ! Wind Speed {m/s}
  310,                                    ! Wind Direction {deg}
  0,                                      ! Sky Clearness
  0,                                      ! Rain Indicator
  0,                                      ! Snow Indicator
  21,                                     ! Day of Month
  7,                                      ! Month
  SummerDesignDay,                        ! Day Type
  0,                                      ! Daylight Saving Time Indicator
  Enthalpy,                               ! Humidity Indicating Type
  ,                                       ! Humidity Indicating Day Schedule Name
  DefaultMultipliers,                     ! Dry-Bulb Temperature Range Modifier Type
  ,                                       ! Dry-Bulb Temperature Range Modifier Schedule Name
  ASHRAETau,                              ! Solar Model Indicator
  ,                                       ! Beam Solar Day Schedule Name
  ,                                       ! Diffuse Solar Day Schedule Name
  0.407,                                  ! ASHRAE Taub {dimensionless}
  2.098;                                  ! ASHRAE Taud {dimensionless}

OS:ComponentData,
  {06ab01ef-dcef-4795-888d-a635b9ba2715}, ! Handle
  Component Data 1,                       ! Name
  {c35219c8-1c01-4401-930f-5857e366fbb9}, ! UUID
  {034ce19b-4bd6-4957-9d42-d87bf98cfcb9}, ! Version UUID
  1366311787,                             ! Creation Timestamp
  1366311787,                             ! Version Timestamp
  {2ea49785-3f9b-4a94-a116-36d2a45f3fde}; ! Name of Object 1

