
OS:Version,
  {59cf3b87-0efa-4513-8ab7-91eccbb28835}, ! Handle
  0.9.3;                                  ! Version Identifier

OS:SizingPeriod:DesignDay,
  {385e999f-c428-4757-aa22-5b804daa135a}, ! Handle
  Oxnard/Point Mugu NF Ann Clg 2% Condns DP=>MDB, ! Name
  21.4,                                   ! Maximum Dry-Bulb Temperature {C}
  7.8,                                    ! Daily Dry-Bulb Temperature Range {deltaC}
  18,                                     ! Humidity Indicating Conditions at Maximum Dry-Bulb {BasedOnField A3}
  101289,                                 ! Barometric Pressure {Pa}
  5.2,                                    ! Wind Speed {m/s}
  50,                                     ! Wind Direction {deg}
  0,                                      ! Sky Clearness
  0,                                      ! Rain Indicator
  0,                                      ! Snow Indicator
  21,                                     ! Day of Month
  8,                                      ! Month
  SummerDesignDay,                        ! Day Type
  0,                                      ! Daylight Saving Time Indicator
  Dewpoint,                               ! Humidity Indicating Type
  ,                                       ! Humidity Indicating Day Schedule Name
  DefaultMultipliers,                     ! Dry-Bulb Temperature Range Modifier Type
  ,                                       ! Dry-Bulb Temperature Range Modifier Schedule Name
  ASHRAETau,                              ! Solar Model Indicator
  ,                                       ! Beam Solar Day Schedule Name
  ,                                       ! Diffuse Solar Day Schedule Name
  0.425,                                  ! ASHRAE Taub {dimensionless}
  2.2;                                    ! ASHRAE Taud {dimensionless}

OS:ComponentData,
  {f8631b5b-faed-450e-afc9-7481da8b6167}, ! Handle
  Component Data 1,                       ! Name
  {b2fded1d-301d-4c47-a8e3-01321538f775}, ! UUID
  {09e24c88-37ef-4ab7-8aba-3241e9eac58c}, ! Version UUID
  1366306536,                             ! Creation Timestamp
  1366306536,                             ! Version Timestamp
  {385e999f-c428-4757-aa22-5b804daa135a}; ! Name of Object 1

