
OS:Version,
  {1e3e7335-5da7-48f3-b781-44faae5c88b8}, ! Handle
  0.9.3;                                  ! Version Identifier

OS:SizingPeriod:DesignDay,
  {cf4dcc3b-d1a0-41e0-8dff-e04723365717}, ! Handle
  Salina Municipal Ap Ann Clg 2% Condns DB=>MWB, ! Name
  34.9,                                   ! Maximum Dry-Bulb Temperature {C}
  12.6,                                   ! Daily Dry-Bulb Temperature Range {deltaC}
  22.9,                                   ! Humidity Indicating Conditions at Maximum Dry-Bulb {BasedOnField A3}
  96785,                                  ! Barometric Pressure {Pa}
  6.9,                                    ! Wind Speed {m/s}
  190,                                    ! Wind Direction {deg}
  0,                                      ! Sky Clearness
  0,                                      ! Rain Indicator
  0,                                      ! Snow Indicator
  21,                                     ! Day of Month
  7,                                      ! Month
  SummerDesignDay,                        ! Day Type
  0,                                      ! Daylight Saving Time Indicator
  Wetbulb,                                ! Humidity Indicating Type
  ,                                       ! Humidity Indicating Day Schedule Name
  DefaultMultipliers,                     ! Dry-Bulb Temperature Range Modifier Type
  ,                                       ! Dry-Bulb Temperature Range Modifier Schedule Name
  ASHRAETau,                              ! Solar Model Indicator
  ,                                       ! Beam Solar Day Schedule Name
  ,                                       ! Diffuse Solar Day Schedule Name
  0.42,                                   ! ASHRAE Taub {dimensionless}
  2.193;                                  ! ASHRAE Taud {dimensionless}

OS:ComponentData,
  {33e84dc6-9d63-4dab-a7ef-2ad1fe50e647}, ! Handle
  Component Data 1,                       ! Name
  {3f70807d-a084-4aa9-9d51-7140d3ef7b68}, ! UUID
  {7ebb51f6-143d-4f41-b0fd-1cf772f2f536}, ! Version UUID
  1366307575,                             ! Creation Timestamp
  1366307575,                             ! Version Timestamp
  {cf4dcc3b-d1a0-41e0-8dff-e04723365717}; ! Name of Object 1

