
OS:Version,
  {8b1344b6-87fe-48f5-890a-f659a07db36a}, ! Handle
  0.9.3;                                  ! Version Identifier

OS:SizingPeriod:DesignDay,
  {22d3fd26-6589-42fc-b2a5-544938af8ef9}, ! Handle
  SHREVEPORT Ann Clg .4% Condns DP=>MDB,  ! Name
  28.5,                                   ! Maximum Dry-Bulb Temperature {C}
  10.7,                                   ! Daily Dry-Bulb Temperature Range {deltaC}
  24.7,                                   ! Humidity Indicating Conditions at Maximum Dry-Bulb {BasedOnField A3}
  100380,                                 ! Barometric Pressure {Pa}
  3.3,                                    ! Wind Speed {m/s}
  180,                                    ! Wind Direction {deg}
  0,                                      ! Sky Clearness
  0,                                      ! Rain Indicator
  0,                                      ! Snow Indicator
  21,                                     ! Day of Month
  7,                                      ! Month
  SummerDesignDay,                        ! Day Type
  0,                                      ! Daylight Saving Time Indicator
  Dewpoint,                               ! Humidity Indicating Type
  ,                                       ! Humidity Indicating Day Schedule Name
  DefaultMultipliers,                     ! Dry-Bulb Temperature Range Modifier Type
  ,                                       ! Dry-Bulb Temperature Range Modifier Schedule Name
  ASHRAETau,                              ! Solar Model Indicator
  ,                                       ! Beam Solar Day Schedule Name
  ,                                       ! Diffuse Solar Day Schedule Name
  0.489,                                  ! ASHRAE Taub {dimensionless}
  2.014;                                  ! ASHRAE Taud {dimensionless}

OS:ComponentData,
  {b122afc4-09fc-4dd2-b04b-4c828277a7a4}, ! Handle
  Component Data 1,                       ! Name
  {b06f60dd-11b3-4b58-9f8f-7ee3136dff06}, ! UUID
  {69d31756-4517-4b05-bcb4-68f1ea4e174d}, ! Version UUID
  1366307763,                             ! Creation Timestamp
  1366307763,                             ! Version Timestamp
  {22d3fd26-6589-42fc-b2a5-544938af8ef9}; ! Name of Object 1

