
OS:Version,
  {70896004-349f-4e33-bf05-31329e6c6e71}, ! Handle
  0.9.3;                                  ! Version Identifier

OS:SizingPeriod:DesignDay,
  {f9237e86-1b86-4410-996a-4022b9f4b96b}, ! Handle
  Macon Middle Ga Regional Ap Ann Clg 1% Condns DB=>MWB, ! Name
  34.6,                                   ! Maximum Dry-Bulb Temperature {C}
  11.1,                                   ! Daily Dry-Bulb Temperature Range {deltaC}
  24.2,                                   ! Humidity Indicating Conditions at Maximum Dry-Bulb {BasedOnField A3}
  100034,                                 ! Barometric Pressure {Pa}
  3.6,                                    ! Wind Speed {m/s}
  300,                                    ! Wind Direction {deg}
  0,                                      ! Sky Clearness
  0,                                      ! Rain Indicator
  0,                                      ! Snow Indicator
  21,                                     ! Day of Month
  7,                                      ! Month
  SummerDesignDay,                        ! Day Type
  0,                                      ! Daylight Saving Time Indicator
  Wetbulb,                                ! Humidity Indicating Type
  ,                                       ! Humidity Indicating Day Schedule Name
  DefaultMultipliers,                     ! Dry-Bulb Temperature Range Modifier Type
  ,                                       ! Dry-Bulb Temperature Range Modifier Schedule Name
  ASHRAETau,                              ! Solar Model Indicator
  ,                                       ! Beam Solar Day Schedule Name
  ,                                       ! Diffuse Solar Day Schedule Name
  0.549,                                  ! ASHRAE Taub {dimensionless}
  1.812;                                  ! ASHRAE Taud {dimensionless}

OS:ComponentData,
  {3931daf6-2954-49fb-9d3b-fda81ae5a64f}, ! Handle
  Component Data 1,                       ! Name
  {2dcc211f-1544-405f-bb29-5ac03ce4301e}, ! UUID
  {c8a871cb-8e24-49bc-beaa-398a579b38f0}, ! Version UUID
  1366307023,                             ! Creation Timestamp
  1366307023,                             ! Version Timestamp
  {f9237e86-1b86-4410-996a-4022b9f4b96b}; ! Name of Object 1

