
OS:Version,
  {0da1b1ee-4102-4a89-bca3-9b6050dc0ba9}, ! Handle
  0.9.3;                                  ! Version Identifier

OS:SizingPeriod:DesignDay,
  {4576529b-694c-48d9-8d34-a9f9a9b84c40}, ! Handle
  San Luis Co Rgnl Ann Htg Wind 99.6% Condns WS=>MCDB, ! Name
  14.3,                                   ! Maximum Dry-Bulb Temperature {C}
  0,                                      ! Daily Dry-Bulb Temperature Range {deltaC}
  14.3,                                   ! Humidity Indicating Conditions at Maximum Dry-Bulb {BasedOnField A3}
  100535,                                 ! Barometric Pressure {Pa}
  10.6,                                   ! Wind Speed {m/s}
  100,                                    ! Wind Direction {deg}
  0,                                      ! Sky Clearness
  0,                                      ! Rain Indicator
  0,                                      ! Snow Indicator
  21,                                     ! Day of Month
  12,                                     ! Month
  WinterDesignDay,                        ! Day Type
  0,                                      ! Daylight Saving Time Indicator
  Wetbulb,                                ! Humidity Indicating Type
  ,                                       ! Humidity Indicating Day Schedule Name
  DefaultMultipliers,                     ! Dry-Bulb Temperature Range Modifier Type
  ,                                       ! Dry-Bulb Temperature Range Modifier Schedule Name
  ASHRAEClearSky;                         ! Solar Model Indicator

OS:ComponentData,
  {c599bb1d-7da0-4da0-9067-b47dbba5b09e}, ! Handle
  Component Data 1,                       ! Name
  {e19e159f-27dd-46a3-9aac-c3660f0dbfc5}, ! UUID
  {d24dd7f3-d2ca-472e-8a82-9bd00f26519d}, ! Version UUID
  1366306600,                             ! Creation Timestamp
  1366306600,                             ! Version Timestamp
  {4576529b-694c-48d9-8d34-a9f9a9b84c40}; ! Name of Object 1

