
OS:Version,
  {7f6e5f76-d9c0-4834-bcc6-e95f98b461b6}, ! Handle
  0.9.3;                                  ! Version Identifier

OS:SizingPeriod:DesignDay,
  {30ba6daa-25fd-49ad-8465-e4402f6a1885}, ! Handle
  Portland Intl Jetport Ann Hum_n 99.6% Condns DP=>MCDB, ! Name
  -16.1,                                  ! Maximum Dry-Bulb Temperature {C}
  0,                                      ! Daily Dry-Bulb Temperature Range {deltaC}
  -26.4,                                  ! Humidity Indicating Conditions at Maximum Dry-Bulb {BasedOnField A3}
  101157,                                 ! Barometric Pressure {Pa}
  3.2,                                    ! Wind Speed {m/s}
  270,                                    ! Wind Direction {deg}
  0,                                      ! Sky Clearness
  0,                                      ! Rain Indicator
  0,                                      ! Snow Indicator
  21,                                     ! Day of Month
  1,                                      ! Month
  WinterDesignDay,                        ! Day Type
  0,                                      ! Daylight Saving Time Indicator
  Dewpoint,                               ! Humidity Indicating Type
  ,                                       ! Humidity Indicating Day Schedule Name
  DefaultMultipliers,                     ! Dry-Bulb Temperature Range Modifier Type
  ,                                       ! Dry-Bulb Temperature Range Modifier Schedule Name
  ASHRAEClearSky;                         ! Solar Model Indicator

