
OS:Version,
  {e43056b7-1f0d-490f-af0b-c00518ac097e}, ! Handle
  0.9.3;                                  ! Version Identifier

OS:SizingPeriod:DesignDay,
  {b47f4bdc-47b1-4d92-9c2d-ff0202092b59}, ! Handle
  San Diego North Island Nas Ann Clg 2% Condns DP=>MDB, ! Name
  22.8,                                   ! Maximum Dry-Bulb Temperature {C}
  4.4,                                    ! Daily Dry-Bulb Temperature Range {deltaC}
  19.1,                                   ! Humidity Indicating Conditions at Maximum Dry-Bulb {BasedOnField A3}
  101145,                                 ! Barometric Pressure {Pa}
  3.9,                                    ! Wind Speed {m/s}
  310,                                    ! Wind Direction {deg}
  0,                                      ! Sky Clearness
  0,                                      ! Rain Indicator
  0,                                      ! Snow Indicator
  21,                                     ! Day of Month
  8,                                      ! Month
  SummerDesignDay,                        ! Day Type
  0,                                      ! Daylight Saving Time Indicator
  Dewpoint,                               ! Humidity Indicating Type
  ,                                       ! Humidity Indicating Day Schedule Name
  DefaultMultipliers,                     ! Dry-Bulb Temperature Range Modifier Type
  ,                                       ! Dry-Bulb Temperature Range Modifier Schedule Name
  ASHRAETau,                              ! Solar Model Indicator
  ,                                       ! Beam Solar Day Schedule Name
  ,                                       ! Diffuse Solar Day Schedule Name
  0.425,                                  ! ASHRAE Taub {dimensionless}
  2.218;                                  ! ASHRAE Taud {dimensionless}

OS:ComponentData,
  {1e562d7c-7f7f-4b5c-aafb-a35f8e84847e}, ! Handle
  Component Data 1,                       ! Name
  {c0b085a7-2193-4cc5-9d72-1316bfd952ac}, ! UUID
  {4fe0fbcf-d7d3-48ca-a91c-f4fe2feeeaed}, ! Version UUID
  1366306583,                             ! Creation Timestamp
  1366306583,                             ! Version Timestamp
  {b47f4bdc-47b1-4d92-9c2d-ff0202092b59}; ! Name of Object 1

