
OS:Version,
  {cfcd5024-3af9-4b97-9787-c1f6fefcfb90}, ! Handle
  0.9.3;                                  ! Version Identifier

OS:SizingPeriod:DesignDay,
  {099b8375-a81c-426e-840b-a328cc4fba6a}, ! Handle
  Marathon Airport Ann Hum_n 99% Condns DP=>MCDB, ! Name
  15.7,                                   ! Maximum Dry-Bulb Temperature {C}
  0,                                      ! Daily Dry-Bulb Temperature Range {deltaC}
  7,                                      ! Humidity Indicating Conditions at Maximum Dry-Bulb {BasedOnField A3}
  101301,                                 ! Barometric Pressure {Pa}
  4.8,                                    ! Wind Speed {m/s}
  0,                                      ! Wind Direction {deg}
  0,                                      ! Sky Clearness
  0,                                      ! Rain Indicator
  0,                                      ! Snow Indicator
  21,                                     ! Day of Month
  1,                                      ! Month
  WinterDesignDay,                        ! Day Type
  0,                                      ! Daylight Saving Time Indicator
  Dewpoint,                               ! Humidity Indicating Type
  ,                                       ! Humidity Indicating Day Schedule Name
  DefaultMultipliers,                     ! Dry-Bulb Temperature Range Modifier Type
  ,                                       ! Dry-Bulb Temperature Range Modifier Schedule Name
  ASHRAEClearSky;                         ! Solar Model Indicator

OS:ComponentData,
  {24a8d254-3673-4565-a837-e834f954d871}, ! Handle
  Component Data 1,                       ! Name
  {2f8593ec-3ebb-469e-8015-216cb74234bb}, ! UUID
  {dc0c6725-ed06-4df7-9a5d-801a5baf8d07}, ! Version UUID
  1366306846,                             ! Creation Timestamp
  1366306846,                             ! Version Timestamp
  {099b8375-a81c-426e-840b-a328cc4fba6a}; ! Name of Object 1

