
OS:Version,
  {a7eeb157-5199-494b-b07a-d18fb4b2b0b8}, ! Handle
  0.9.3;                                  ! Version Identifier

OS:SizingPeriod:DesignDay,
  {2ccce435-7b8c-47c4-8f4f-f459c5b20d12}, ! Handle
  Pasco Ann Clg 2% Condns WB=>MDB,        ! Name
  31.8,                                   ! Maximum Dry-Bulb Temperature {C}
  17.8,                                   ! Daily Dry-Bulb Temperature Range {deltaC}
  20.2,                                   ! Humidity Indicating Conditions at Maximum Dry-Bulb {BasedOnField A3}
  99702,                                  ! Barometric Pressure {Pa}
  3.1,                                    ! Wind Speed {m/s}
  330,                                    ! Wind Direction {deg}
  0,                                      ! Sky Clearness
  0,                                      ! Rain Indicator
  0,                                      ! Snow Indicator
  21,                                     ! Day of Month
  7,                                      ! Month
  SummerDesignDay,                        ! Day Type
  0,                                      ! Daylight Saving Time Indicator
  Wetbulb,                                ! Humidity Indicating Type
  ,                                       ! Humidity Indicating Day Schedule Name
  DefaultMultipliers,                     ! Dry-Bulb Temperature Range Modifier Type
  ,                                       ! Dry-Bulb Temperature Range Modifier Schedule Name
  ASHRAETau,                              ! Solar Model Indicator
  ,                                       ! Beam Solar Day Schedule Name
  ,                                       ! Diffuse Solar Day Schedule Name
  0.398,                                  ! ASHRAE Taub {dimensionless}
  2.219;                                  ! ASHRAE Taud {dimensionless}

