
OS:Version,
  {26d7cd89-c5b8-430c-b66a-17fba91c68e4}, ! Handle
  0.9.3;                                  ! Version Identifier

OS:SizingPeriod:DesignDay,
  {4899b017-2de9-4c64-8168-2148e4643562}, ! Handle
  Winnemucca Ann Clg 1% Condns Enth=>MDB, ! Name
  32.2,                                   ! Maximum Dry-Bulb Temperature {C}
  21.5,                                   ! Daily Dry-Bulb Temperature Range {deltaC}
  53300,                                  ! Humidity Indicating Conditions at Maximum Dry-Bulb {BasedOnField A3}
  86493,                                  ! Barometric Pressure {Pa}
  4.4,                                    ! Wind Speed {m/s}
  240,                                    ! Wind Direction {deg}
  0,                                      ! Sky Clearness
  0,                                      ! Rain Indicator
  0,                                      ! Snow Indicator
  21,                                     ! Day of Month
  7,                                      ! Month
  SummerDesignDay,                        ! Day Type
  0,                                      ! Daylight Saving Time Indicator
  Enthalpy,                               ! Humidity Indicating Type
  ,                                       ! Humidity Indicating Day Schedule Name
  DefaultMultipliers,                     ! Dry-Bulb Temperature Range Modifier Type
  ,                                       ! Dry-Bulb Temperature Range Modifier Schedule Name
  ASHRAETau,                              ! Solar Model Indicator
  ,                                       ! Beam Solar Day Schedule Name
  ,                                       ! Diffuse Solar Day Schedule Name
  0.441,                                  ! ASHRAE Taub {dimensionless}
  1.893;                                  ! ASHRAE Taud {dimensionless}

OS:ComponentData,
  {2d164a7b-0772-4736-9118-c7d47c1388aa}, ! Handle
  Component Data 1,                       ! Name
  {3bf9f05b-4c82-484a-9cab-bf286b0389c7}, ! UUID
  {1286cae9-cbc1-4baf-b5b5-11cbd46ecf00}, ! Version UUID
  1366309565,                             ! Creation Timestamp
  1366309565,                             ! Version Timestamp
  {4899b017-2de9-4c64-8168-2148e4643562}; ! Name of Object 1

