
OS:Version,
  {f1992561-228c-4c7b-b1e3-be477e29e9ec}, ! Handle
  0.9.3;                                  ! Version Identifier

OS:SizingPeriod:DesignDay,
  {31033bca-e016-47a4-ac36-f93fd0505b47}, ! Handle
  NEWARK Ann Clg 2% Condns Enth=>MDB,     ! Name
  28.6,                                   ! Maximum Dry-Bulb Temperature {C}
  8.9,                                    ! Daily Dry-Bulb Temperature Range {deltaC}
  71500,                                  ! Humidity Indicating Conditions at Maximum Dry-Bulb {BasedOnField A3}
  101217,                                 ! Barometric Pressure {Pa}
  5.8,                                    ! Wind Speed {m/s}
  250,                                    ! Wind Direction {deg}
  0,                                      ! Sky Clearness
  0,                                      ! Rain Indicator
  0,                                      ! Snow Indicator
  21,                                     ! Day of Month
  7,                                      ! Month
  SummerDesignDay,                        ! Day Type
  0,                                      ! Daylight Saving Time Indicator
  Enthalpy,                               ! Humidity Indicating Type
  ,                                       ! Humidity Indicating Day Schedule Name
  DefaultMultipliers,                     ! Dry-Bulb Temperature Range Modifier Type
  ,                                       ! Dry-Bulb Temperature Range Modifier Schedule Name
  ASHRAETau,                              ! Solar Model Indicator
  ,                                       ! Beam Solar Day Schedule Name
  ,                                       ! Diffuse Solar Day Schedule Name
  0.528,                                  ! ASHRAE Taub {dimensionless}
  1.831;                                  ! ASHRAE Taud {dimensionless}

OS:ComponentData,
  {e3c47121-9e71-47d3-aef1-4a4b2bc86da1}, ! Handle
  Component Data 1,                       ! Name
  {96f301ed-8153-493d-9b3e-1683d85de18c}, ! UUID
  {55ec5a3f-6d5b-43d8-9e05-61f209026421}, ! Version UUID
  1366309329,                             ! Creation Timestamp
  1366309329,                             ! Version Timestamp
  {31033bca-e016-47a4-ac36-f93fd0505b47}; ! Name of Object 1

