
OS:Version,
  {d4375b78-016d-4923-9c14-25c4dd626cb5}, ! Handle
  0.9.3;                                  ! Version Identifier

OS:SizingPeriod:DesignDay,
  {e7049ea0-cf9c-4a58-a81b-4c6a100fc3ec}, ! Handle
  Southwest Florida I Ann Clg 2% Condns DP=>MDB, ! Name
  28,                                     ! Maximum Dry-Bulb Temperature {C}
  9.1,                                    ! Daily Dry-Bulb Temperature Range {deltaC}
  25.1,                                   ! Humidity Indicating Conditions at Maximum Dry-Bulb {BasedOnField A3}
  101217,                                 ! Barometric Pressure {Pa}
  3.7,                                    ! Wind Speed {m/s}
  100,                                    ! Wind Direction {deg}
  0,                                      ! Sky Clearness
  0,                                      ! Rain Indicator
  0,                                      ! Snow Indicator
  21,                                     ! Day of Month
  8,                                      ! Month
  SummerDesignDay,                        ! Day Type
  0,                                      ! Daylight Saving Time Indicator
  Dewpoint,                               ! Humidity Indicating Type
  ,                                       ! Humidity Indicating Day Schedule Name
  DefaultMultipliers,                     ! Dry-Bulb Temperature Range Modifier Type
  ,                                       ! Dry-Bulb Temperature Range Modifier Schedule Name
  ASHRAETau,                              ! Solar Model Indicator
  ,                                       ! Beam Solar Day Schedule Name
  ,                                       ! Diffuse Solar Day Schedule Name
  0.491,                                  ! ASHRAE Taub {dimensionless}
  2.021;                                  ! ASHRAE Taud {dimensionless}

OS:ComponentData,
  {889e69b7-d398-4dff-960e-e81f3cc8dcbb}, ! Handle
  Component Data 1,                       ! Name
  {c523c30a-e51d-47a9-9f20-a5b33c338207}, ! UUID
  {ebd08ede-e2af-4157-b7f3-cf825d58d085}, ! Version UUID
  1366306912,                             ! Creation Timestamp
  1366306912,                             ! Version Timestamp
  {e7049ea0-cf9c-4a58-a81b-4c6a100fc3ec}; ! Name of Object 1

