
OS:Version,
  {c0c184d2-9d2b-47b4-b82c-d90ee08f5480}, ! Handle
  0.9.3;                                  ! Version Identifier

OS:SizingPeriod:DesignDay,
  {063fe23e-7bf8-49b7-b371-06a02edabde2}, ! Handle
  Naval Air Station Ann Clg 1% Condns Enth=>MDB, ! Name
  26.6,                                   ! Maximum Dry-Bulb Temperature {C}
  10.4,                                   ! Daily Dry-Bulb Temperature Range {deltaC}
  64300,                                  ! Humidity Indicating Conditions at Maximum Dry-Bulb {BasedOnField A3}
  101073,                                 ! Barometric Pressure {Pa}
  4,                                      ! Wind Speed {m/s}
  200,                                    ! Wind Direction {deg}
  0,                                      ! Sky Clearness
  0,                                      ! Rain Indicator
  0,                                      ! Snow Indicator
  21,                                     ! Day of Month
  7,                                      ! Month
  SummerDesignDay,                        ! Day Type
  0,                                      ! Daylight Saving Time Indicator
  Enthalpy,                               ! Humidity Indicating Type
  ,                                       ! Humidity Indicating Day Schedule Name
  DefaultMultipliers,                     ! Dry-Bulb Temperature Range Modifier Type
  ,                                       ! Dry-Bulb Temperature Range Modifier Schedule Name
  ASHRAETau,                              ! Solar Model Indicator
  ,                                       ! Beam Solar Day Schedule Name
  ,                                       ! Diffuse Solar Day Schedule Name
  0.473,                                  ! ASHRAE Taub {dimensionless}
  1.986;                                  ! ASHRAE Taud {dimensionless}

OS:ComponentData,
  {c4965bc3-abfd-449c-be4d-637e9d68db1d}, ! Handle
  Component Data 1,                       ! Name
  {d6b7bcce-e84a-40db-8218-53e5997fdfd6}, ! UUID
  {73e33858-2323-419a-88a8-89cc9d9f272f}, ! Version UUID
  1366307884,                             ! Creation Timestamp
  1366307884,                             ! Version Timestamp
  {063fe23e-7bf8-49b7-b371-06a02edabde2}; ! Name of Object 1

