
OS:Version,
  {95204571-5fc1-4f51-9353-84d4c147bade}, ! Handle
  0.9.3;                                  ! Version Identifier

OS:SizingPeriod:DesignDay,
  {99382442-f757-4056-b634-10309fa5f3ff}, ! Handle
  Monroe Co Ann Clg 2% Condns Enth=>MDB,  ! Name
  28.7,                                   ! Maximum Dry-Bulb Temperature {C}
  10.8,                                   ! Daily Dry-Bulb Temperature Range {deltaC}
  75700,                                  ! Humidity Indicating Conditions at Maximum Dry-Bulb {BasedOnField A3}
  98193,                                  ! Barometric Pressure {Pa}
  3.4,                                    ! Wind Speed {m/s}
  240,                                    ! Wind Direction {deg}
  0,                                      ! Sky Clearness
  0,                                      ! Rain Indicator
  0,                                      ! Snow Indicator
  21,                                     ! Day of Month
  7,                                      ! Month
  SummerDesignDay,                        ! Day Type
  0,                                      ! Daylight Saving Time Indicator
  Enthalpy,                               ! Humidity Indicating Type
  ,                                       ! Humidity Indicating Day Schedule Name
  DefaultMultipliers,                     ! Dry-Bulb Temperature Range Modifier Type
  ,                                       ! Dry-Bulb Temperature Range Modifier Schedule Name
  ASHRAETau,                              ! Solar Model Indicator
  ,                                       ! Beam Solar Day Schedule Name
  ,                                       ! Diffuse Solar Day Schedule Name
  0.485,                                  ! ASHRAE Taub {dimensionless}
  1.938;                                  ! ASHRAE Taud {dimensionless}

OS:ComponentData,
  {094d553b-fead-4bba-9f4c-9726b5bb7c19}, ! Handle
  Component Data 1,                       ! Name
  {afd53baf-0301-4f90-a60e-c59efebfa134}, ! UUID
  {0614aad4-fec4-408c-b831-82e6ed8537b4}, ! Version UUID
  1366307476,                             ! Creation Timestamp
  1366307476,                             ! Version Timestamp
  {99382442-f757-4056-b634-10309fa5f3ff}; ! Name of Object 1

