
OS:Version,
  {8bbadc3d-890b-4de5-af5e-8a94896aaf58}, ! Handle
  0.9.3;                                  ! Version Identifier

OS:SizingPeriod:DesignDay,
  {ad2b947f-0aa4-475a-b804-cac3c3181a51}, ! Handle
  Mountain View/Moffet N Ann Htg 99.6% Condns DB, ! Name
  2.5,                                    ! Maximum Dry-Bulb Temperature {C}
  0,                                      ! Daily Dry-Bulb Temperature Range {deltaC}
  2.5,                                    ! Humidity Indicating Conditions at Maximum Dry-Bulb {BasedOnField A3}
  101181,                                 ! Barometric Pressure {Pa}
  0.5,                                    ! Wind Speed {m/s}
  270,                                    ! Wind Direction {deg}
  0,                                      ! Sky Clearness
  0,                                      ! Rain Indicator
  0,                                      ! Snow Indicator
  21,                                     ! Day of Month
  12,                                     ! Month
  WinterDesignDay,                        ! Day Type
  0,                                      ! Daylight Saving Time Indicator
  Wetbulb,                                ! Humidity Indicating Type
  ,                                       ! Humidity Indicating Day Schedule Name
  DefaultMultipliers,                     ! Dry-Bulb Temperature Range Modifier Type
  ,                                       ! Dry-Bulb Temperature Range Modifier Schedule Name
  ASHRAEClearSky;                         ! Solar Model Indicator

OS:ComponentData,
  {7b654c8e-2d6e-4873-ab80-18ae4e3d6417}, ! Handle
  Component Data 1,                       ! Name
  {c1e510ad-ef53-41d3-8c9b-cfa3fa1987fc}, ! UUID
  {474cdc93-c745-4dcc-b886-13297c8b2ec5}, ! Version UUID
  1366306505,                             ! Creation Timestamp
  1366306505,                             ! Version Timestamp
  {ad2b947f-0aa4-475a-b804-cac3c3181a51}; ! Name of Object 1

