
OS:Version,
  {75e650b4-dcb3-49c5-bbc2-2db11f9cb33e}, ! Handle
  0.9.3;                                  ! Version Identifier

OS:SizingPeriod:DesignDay,
  {f2ce25a3-42cc-4607-9844-218dc72b0630}, ! Handle
  St Petersburg Clear Ann Clg .4% Condns Enth=>MDB, ! Name
  31.9,                                   ! Maximum Dry-Bulb Temperature {C}
  7.1,                                    ! Daily Dry-Bulb Temperature Range {deltaC}
  88400,                                  ! Humidity Indicating Conditions at Maximum Dry-Bulb {BasedOnField A3}
  101289,                                 ! Barometric Pressure {Pa}
  4.1,                                    ! Wind Speed {m/s}
  320,                                    ! Wind Direction {deg}
  0,                                      ! Sky Clearness
  0,                                      ! Rain Indicator
  0,                                      ! Snow Indicator
  21,                                     ! Day of Month
  8,                                      ! Month
  SummerDesignDay,                        ! Day Type
  0,                                      ! Daylight Saving Time Indicator
  Enthalpy,                               ! Humidity Indicating Type
  ,                                       ! Humidity Indicating Day Schedule Name
  DefaultMultipliers,                     ! Dry-Bulb Temperature Range Modifier Type
  ,                                       ! Dry-Bulb Temperature Range Modifier Schedule Name
  ASHRAETau,                              ! Solar Model Indicator
  ,                                       ! Beam Solar Day Schedule Name
  ,                                       ! Diffuse Solar Day Schedule Name
  0.49,                                   ! ASHRAE Taub {dimensionless}
  2.029;                                  ! ASHRAE Taud {dimensionless}

OS:ComponentData,
  {34aabbcd-091a-4a9c-8770-13342d05ebfd}, ! Handle
  Component Data 1,                       ! Name
  {5371ed32-e2f1-457c-a22f-6b085354be0d}, ! UUID
  {7e3f1609-3730-424e-b09e-12c884fa8c11}, ! Version UUID
  1366306917,                             ! Creation Timestamp
  1366306917,                             ! Version Timestamp
  {f2ce25a3-42cc-4607-9844-218dc72b0630}; ! Name of Object 1

