
OS:Version,
  {640e8e8c-ead8-4652-96f2-b7b4fd90b487}, ! Handle
  0.9.3;                                  ! Version Identifier

OS:SizingPeriod:DesignDay,
  {0b36b276-11a6-4a8a-9383-c54225f123ef}, ! Handle
  ROCHESTER Ann Clg 1% Condns WB=>MDB,    ! Name
  27.7,                                   ! Maximum Dry-Bulb Temperature {C}
  10.6,                                   ! Daily Dry-Bulb Temperature Range {deltaC}
  23.7,                                   ! Humidity Indicating Conditions at Maximum Dry-Bulb {BasedOnField A3}
  96588,                                  ! Barometric Pressure {Pa}
  6.7,                                    ! Wind Speed {m/s}
  200,                                    ! Wind Direction {deg}
  0,                                      ! Sky Clearness
  0,                                      ! Rain Indicator
  0,                                      ! Snow Indicator
  21,                                     ! Day of Month
  7,                                      ! Month
  SummerDesignDay,                        ! Day Type
  0,                                      ! Daylight Saving Time Indicator
  Wetbulb,                                ! Humidity Indicating Type
  ,                                       ! Humidity Indicating Day Schedule Name
  DefaultMultipliers,                     ! Dry-Bulb Temperature Range Modifier Type
  ,                                       ! Dry-Bulb Temperature Range Modifier Schedule Name
  ASHRAETau,                              ! Solar Model Indicator
  ,                                       ! Beam Solar Day Schedule Name
  ,                                       ! Diffuse Solar Day Schedule Name
  0.404,                                  ! ASHRAE Taub {dimensionless}
  2.226;                                  ! ASHRAE Taud {dimensionless}

OS:ComponentData,
  {50c56dec-c0b0-491c-97e3-89fb6079dfb3}, ! Handle
  Component Data 1,                       ! Name
  {5dab0437-7121-4788-89bb-a38f6b86ad3c}, ! UUID
  {12e9e016-2c8a-4cc3-a338-1d2df6a2e5df}, ! Version UUID
  1366308387,                             ! Creation Timestamp
  1366308387,                             ! Version Timestamp
  {0b36b276-11a6-4a8a-9383-c54225f123ef}; ! Name of Object 1

