
OS:Version,
  {544bf4d6-fd48-4929-9355-85f64494701b}, ! Handle
  0.9.3;                                  ! Version Identifier

OS:SizingPeriod:DesignDay,
  {2869e089-624d-47b5-ab6b-79d45f5d2531}, ! Handle
  Massena Ann Clg 2% Condns DB=>MWB,      ! Name
  27.8,                                   ! Maximum Dry-Bulb Temperature {C}
  11.7,                                   ! Daily Dry-Bulb Temperature Range {deltaC}
  20.8,                                   ! Humidity Indicating Conditions at Maximum Dry-Bulb {BasedOnField A3}
  100547,                                 ! Barometric Pressure {Pa}
  4.7,                                    ! Wind Speed {m/s}
  240,                                    ! Wind Direction {deg}
  0,                                      ! Sky Clearness
  0,                                      ! Rain Indicator
  0,                                      ! Snow Indicator
  21,                                     ! Day of Month
  7,                                      ! Month
  SummerDesignDay,                        ! Day Type
  0,                                      ! Daylight Saving Time Indicator
  Wetbulb,                                ! Humidity Indicating Type
  ,                                       ! Humidity Indicating Day Schedule Name
  DefaultMultipliers,                     ! Dry-Bulb Temperature Range Modifier Type
  ,                                       ! Dry-Bulb Temperature Range Modifier Schedule Name
  ASHRAETau,                              ! Solar Model Indicator
  ,                                       ! Beam Solar Day Schedule Name
  ,                                       ! Diffuse Solar Day Schedule Name
  0.454,                                  ! ASHRAE Taub {dimensionless}
  2.024;                                  ! ASHRAE Taud {dimensionless}

