
OS:Version,
  {d4f1b173-1c4f-4128-9262-b42f903ffbda}, ! Handle
  0.9.3;                                  ! Version Identifier

OS:SizingPeriod:DesignDay,
  {00556707-9048-4960-ab12-86efa24df36d}, ! Handle
  MISSOULA Ann Clg .4% Condns DB=>MWB,    ! Name
  33.6,                                   ! Maximum Dry-Bulb Temperature {C}
  17.5,                                   ! Daily Dry-Bulb Temperature Range {deltaC}
  16.9,                                   ! Humidity Indicating Conditions at Maximum Dry-Bulb {BasedOnField A3}
  90180,                                  ! Barometric Pressure {Pa}
  4.4,                                    ! Wind Speed {m/s}
  320,                                    ! Wind Direction {deg}
  0,                                      ! Sky Clearness
  0,                                      ! Rain Indicator
  0,                                      ! Snow Indicator
  21,                                     ! Day of Month
  7,                                      ! Month
  SummerDesignDay,                        ! Day Type
  0,                                      ! Daylight Saving Time Indicator
  Wetbulb,                                ! Humidity Indicating Type
  ,                                       ! Humidity Indicating Day Schedule Name
  DefaultMultipliers,                     ! Dry-Bulb Temperature Range Modifier Type
  ,                                       ! Dry-Bulb Temperature Range Modifier Schedule Name
  ASHRAETau,                              ! Solar Model Indicator
  ,                                       ! Beam Solar Day Schedule Name
  ,                                       ! Diffuse Solar Day Schedule Name
  0.357,                                  ! ASHRAE Taub {dimensionless}
  2.409;                                  ! ASHRAE Taud {dimensionless}

OS:ComponentData,
  {305042be-9923-4315-aad0-d10760b95a5e}, ! Handle
  Component Data 1,                       ! Name
  {adf6a4cb-d07d-4b4c-a545-80bc67a67605}, ! UUID
  {d824e7f1-9a8d-4c30-a820-536eb6797c32}, ! Version UUID
  1366308841,                             ! Creation Timestamp
  1366308841,                             ! Version Timestamp
  {00556707-9048-4960-ab12-86efa24df36d}; ! Name of Object 1

