
OS:Version,
  {4cf13743-4d9d-4805-96bb-b60184aef1bd}, ! Handle
  0.9.3;                                  ! Version Identifier

OS:SizingPeriod:DesignDay,
  {e74fca45-962b-4ebb-97ec-edbf2ce4d7b9}, ! Handle
  SHREVEPORT Ann Htg 99.6% Condns DB,     ! Name
  -4.6,                                   ! Maximum Dry-Bulb Temperature {C}
  0,                                      ! Daily Dry-Bulb Temperature Range {deltaC}
  -4.6,                                   ! Humidity Indicating Conditions at Maximum Dry-Bulb {BasedOnField A3}
  100380,                                 ! Barometric Pressure {Pa}
  3.4,                                    ! Wind Speed {m/s}
  350,                                    ! Wind Direction {deg}
  0,                                      ! Sky Clearness
  0,                                      ! Rain Indicator
  0,                                      ! Snow Indicator
  21,                                     ! Day of Month
  1,                                      ! Month
  WinterDesignDay,                        ! Day Type
  0,                                      ! Daylight Saving Time Indicator
  Wetbulb,                                ! Humidity Indicating Type
  ,                                       ! Humidity Indicating Day Schedule Name
  DefaultMultipliers,                     ! Dry-Bulb Temperature Range Modifier Type
  ,                                       ! Dry-Bulb Temperature Range Modifier Schedule Name
  ASHRAEClearSky;                         ! Solar Model Indicator

OS:ComponentData,
  {25f01993-78cb-4c27-b344-45e8a9c8fe7c}, ! Handle
  Component Data 1,                       ! Name
  {cd93bad9-d4a2-4aa7-a282-077418bdea47}, ! UUID
  {56574ba1-73eb-43f6-843b-30faa7e96ee8}, ! Version UUID
  1366307761,                             ! Creation Timestamp
  1366307761,                             ! Version Timestamp
  {e74fca45-962b-4ebb-97ec-edbf2ce4d7b9}; ! Name of Object 1

