
OS:Version,
  {ff96b1bd-b815-40ed-b103-a4f08d3304e4}, ! Handle
  0.9.3;                                  ! Version Identifier

OS:SizingPeriod:DesignDay,
  {91744dcb-bd0b-4981-bf2d-43d1f31b059b}, ! Handle
  Oxford  Awos Ann Clg .4% Condns DB=>MWB, ! Name
  30.9,                                   ! Maximum Dry-Bulb Temperature {C}
  10.3,                                   ! Daily Dry-Bulb Temperature Range {deltaC}
  22.6,                                   ! Humidity Indicating Conditions at Maximum Dry-Bulb {BasedOnField A3}
  98686,                                  ! Barometric Pressure {Pa}
  2.7,                                    ! Wind Speed {m/s}
  300,                                    ! Wind Direction {deg}
  0,                                      ! Sky Clearness
  0,                                      ! Rain Indicator
  0,                                      ! Snow Indicator
  21,                                     ! Day of Month
  7,                                      ! Month
  SummerDesignDay,                        ! Day Type
  0,                                      ! Daylight Saving Time Indicator
  Wetbulb,                                ! Humidity Indicating Type
  ,                                       ! Humidity Indicating Day Schedule Name
  DefaultMultipliers,                     ! Dry-Bulb Temperature Range Modifier Type
  ,                                       ! Dry-Bulb Temperature Range Modifier Schedule Name
  ASHRAETau,                              ! Solar Model Indicator
  ,                                       ! Beam Solar Day Schedule Name
  ,                                       ! Diffuse Solar Day Schedule Name
  0.477,                                  ! ASHRAE Taub {dimensionless}
  1.955;                                  ! ASHRAE Taud {dimensionless}

OS:ComponentData,
  {d35e0d73-df43-45e9-9ffa-e0abe5b1eaa2}, ! Handle
  Component Data 1,                       ! Name
  {11aae941-9288-48c4-b147-272bc071a648}, ! UUID
  {8dacf637-386a-4ebe-97a9-181a408eaff6}, ! Version UUID
  1366306766,                             ! Creation Timestamp
  1366306766,                             ! Version Timestamp
  {91744dcb-bd0b-4981-bf2d-43d1f31b059b}; ! Name of Object 1

