
OS:Version,
  {7518d3b9-e623-4fcf-b39e-1c47e2cba200}, ! Handle
  0.9.3;                                  ! Version Identifier

OS:SizingPeriod:DesignDay,
  {5f743d79-e6ba-4e61-8136-ef4adb79cafc}, ! Handle
  Omaha Wsfo Ann Clg 2% Condns Enth=>MDB, ! Name
  30,                                     ! Maximum Dry-Bulb Temperature {C}
  9.7,                                    ! Daily Dry-Bulb Temperature Range {deltaC}
  72800,                                  ! Humidity Indicating Conditions at Maximum Dry-Bulb {BasedOnField A3}
  96623,                                  ! Barometric Pressure {Pa}
  4.7,                                    ! Wind Speed {m/s}
  170,                                    ! Wind Direction {deg}
  0,                                      ! Sky Clearness
  0,                                      ! Rain Indicator
  0,                                      ! Snow Indicator
  21,                                     ! Day of Month
  7,                                      ! Month
  SummerDesignDay,                        ! Day Type
  0,                                      ! Daylight Saving Time Indicator
  Enthalpy,                               ! Humidity Indicating Type
  ,                                       ! Humidity Indicating Day Schedule Name
  DefaultMultipliers,                     ! Dry-Bulb Temperature Range Modifier Type
  ,                                       ! Dry-Bulb Temperature Range Modifier Schedule Name
  ASHRAETau,                              ! Solar Model Indicator
  ,                                       ! Beam Solar Day Schedule Name
  ,                                       ! Diffuse Solar Day Schedule Name
  0.414,                                  ! ASHRAE Taub {dimensionless}
  2.216;                                  ! ASHRAE Taud {dimensionless}

OS:ComponentData,
  {6476d137-1bf3-4e96-a844-1d07234d0858}, ! Handle
  Component Data 1,                       ! Name
  {a0c29f07-757f-4886-b18a-374cb1e74fc7}, ! UUID
  {d3d2d535-b46a-493e-98b3-01a46941782d}, ! Version UUID
  1366309182,                             ! Creation Timestamp
  1366309182,                             ! Version Timestamp
  {5f743d79-e6ba-4e61-8136-ef4adb79cafc}; ! Name of Object 1

