
OS:Version,
  {f48845f6-6862-4ad5-be4a-4f4cd96d7a6b}, ! Handle
  0.9.3;                                  ! Version Identifier

OS:SizingPeriod:DesignDay,
  {49850229-5070-409c-9fba-5ca3b85f3339}, ! Handle
  Portland Hillsboro Ann Hum_n 99% Condns DP=>MCDB, ! Name
  0.9,                                    ! Maximum Dry-Bulb Temperature {C}
  0,                                      ! Daily Dry-Bulb Temperature Range {deltaC}
  -8,                                     ! Humidity Indicating Conditions at Maximum Dry-Bulb {BasedOnField A3}
  100582,                                 ! Barometric Pressure {Pa}
  2.4,                                    ! Wind Speed {m/s}
  60,                                     ! Wind Direction {deg}
  0,                                      ! Sky Clearness
  0,                                      ! Rain Indicator
  0,                                      ! Snow Indicator
  21,                                     ! Day of Month
  12,                                     ! Month
  WinterDesignDay,                        ! Day Type
  0,                                      ! Daylight Saving Time Indicator
  Dewpoint,                               ! Humidity Indicating Type
  ,                                       ! Humidity Indicating Day Schedule Name
  DefaultMultipliers,                     ! Dry-Bulb Temperature Range Modifier Type
  ,                                       ! Dry-Bulb Temperature Range Modifier Schedule Name
  ASHRAEClearSky;                         ! Solar Model Indicator

OS:ComponentData,
  {135a2325-89bb-4d6a-a7ad-193ce3fae7ef}, ! Handle
  Component Data 1,                       ! Name
  {4739b30a-6946-4ac2-b475-2c5b97c485e6}, ! UUID
  {99158493-56dd-4f03-87fa-ca7edf179236}, ! Version UUID
  1366310067,                             ! Creation Timestamp
  1366310067,                             ! Version Timestamp
  {49850229-5070-409c-9fba-5ca3b85f3339}; ! Name of Object 1

