
OS:Version,
  {cf987b2a-af3c-43e1-a9dd-40c58ca98485}, ! Handle
  0.9.3;                                  ! Version Identifier

OS:SizingPeriod:DesignDay,
  {1f88a835-9f62-4b1e-b726-539f4dc5b3b5}, ! Handle
  Wichita Falls Municipal Arpt Ann Clg .4% Condns DB=>MWB, ! Name
  39.2,                                   ! Maximum Dry-Bulb Temperature {C}
  13,                                     ! Daily Dry-Bulb Temperature Range {deltaC}
  22.9,                                   ! Humidity Indicating Conditions at Maximum Dry-Bulb {BasedOnField A3}
  97609,                                  ! Barometric Pressure {Pa}
  5.5,                                    ! Wind Speed {m/s}
  180,                                    ! Wind Direction {deg}
  0,                                      ! Sky Clearness
  0,                                      ! Rain Indicator
  0,                                      ! Snow Indicator
  21,                                     ! Day of Month
  7,                                      ! Month
  SummerDesignDay,                        ! Day Type
  0,                                      ! Daylight Saving Time Indicator
  Wetbulb,                                ! Humidity Indicating Type
  ,                                       ! Humidity Indicating Day Schedule Name
  DefaultMultipliers,                     ! Dry-Bulb Temperature Range Modifier Type
  ,                                       ! Dry-Bulb Temperature Range Modifier Schedule Name
  ASHRAETau,                              ! Solar Model Indicator
  ,                                       ! Beam Solar Day Schedule Name
  ,                                       ! Diffuse Solar Day Schedule Name
  0.44,                                   ! ASHRAE Taub {dimensionless}
  2.15;                                   ! ASHRAE Taud {dimensionless}

OS:ComponentData,
  {6976a041-1b03-495f-ba8a-7f76752e1f0e}, ! Handle
  Component Data 1,                       ! Name
  {66489161-916c-48e4-b9b1-d03414a05113}, ! UUID
  {4f308665-6a7d-4e53-a387-911c4398bffb}, ! Version UUID
  1366310936,                             ! Creation Timestamp
  1366310936,                             ! Version Timestamp
  {1f88a835-9f62-4b1e-b726-539f4dc5b3b5}; ! Name of Object 1

