
OS:Version,
  {30b092dc-f7c6-4da1-ba7e-c793824d0375}, ! Handle
  0.9.3;                                  ! Version Identifier

OS:SizingPeriod:DesignDay,
  {9bbab056-bba6-4a3f-939f-dca2482318fc}, ! Handle
  Salem Mcnary Field Ann Hum_n 99% Condns DP=>MCDB, ! Name
  -1,                                     ! Maximum Dry-Bulb Temperature {C}
  0,                                      ! Daily Dry-Bulb Temperature Range {deltaC}
  -7.5,                                   ! Humidity Indicating Conditions at Maximum Dry-Bulb {BasedOnField A3}
  100606,                                 ! Barometric Pressure {Pa}
  2.1,                                    ! Wind Speed {m/s}
  0,                                      ! Wind Direction {deg}
  0,                                      ! Sky Clearness
  0,                                      ! Rain Indicator
  0,                                      ! Snow Indicator
  21,                                     ! Day of Month
  12,                                     ! Month
  WinterDesignDay,                        ! Day Type
  0,                                      ! Daylight Saving Time Indicator
  Dewpoint,                               ! Humidity Indicating Type
  ,                                       ! Humidity Indicating Day Schedule Name
  DefaultMultipliers,                     ! Dry-Bulb Temperature Range Modifier Type
  ,                                       ! Dry-Bulb Temperature Range Modifier Schedule Name
  ASHRAEClearSky;                         ! Solar Model Indicator

OS:ComponentData,
  {49462f09-1db0-4bda-990c-37a548365f5c}, ! Handle
  Component Data 1,                       ! Name
  {ca8df06a-ba77-4a2b-b8e3-265e92e49adb}, ! UUID
  {b6dcc87d-0979-411a-b823-540cb134cf47}, ! Version UUID
  1366310113,                             ! Creation Timestamp
  1366310113,                             ! Version Timestamp
  {9bbab056-bba6-4a3f-939f-dca2482318fc}; ! Name of Object 1

