
OS:Version,
  {f8737f8b-17d4-4f74-91ba-7b841a4bfdd2}, ! Handle
  0.9.3;                                  ! Version Identifier

OS:SizingPeriod:DesignDay,
  {2a9f683f-524e-474b-85ea-0c0e1b78ef2f}, ! Handle
  Memphis International Ap Ann Clg 2% Condns WB=>MDB, ! Name
  31.4,                                   ! Maximum Dry-Bulb Temperature {C}
  9.2,                                    ! Daily Dry-Bulb Temperature Range {deltaC}
  25.7,                                   ! Humidity Indicating Conditions at Maximum Dry-Bulb {BasedOnField A3}
  100356,                                 ! Barometric Pressure {Pa}
  3.8,                                    ! Wind Speed {m/s}
  240,                                    ! Wind Direction {deg}
  0,                                      ! Sky Clearness
  0,                                      ! Rain Indicator
  0,                                      ! Snow Indicator
  21,                                     ! Day of Month
  7,                                      ! Month
  SummerDesignDay,                        ! Day Type
  0,                                      ! Daylight Saving Time Indicator
  Wetbulb,                                ! Humidity Indicating Type
  ,                                       ! Humidity Indicating Day Schedule Name
  DefaultMultipliers,                     ! Dry-Bulb Temperature Range Modifier Type
  ,                                       ! Dry-Bulb Temperature Range Modifier Schedule Name
  ASHRAETau,                              ! Solar Model Indicator
  ,                                       ! Beam Solar Day Schedule Name
  ,                                       ! Diffuse Solar Day Schedule Name
  0.512,                                  ! ASHRAE Taub {dimensionless}
  1.892;                                  ! ASHRAE Taud {dimensionless}

OS:ComponentData,
  {a1240b0e-8609-4bae-b5da-ff20a53a844c}, ! Handle
  Component Data 1,                       ! Name
  {9b045eee-0206-46a2-bb60-bfa16fdd782b}, ! UUID
  {454b4859-9fda-4f37-ac2f-8ec674dbf3ff}, ! Version UUID
  1366310530,                             ! Creation Timestamp
  1366310530,                             ! Version Timestamp
  {2a9f683f-524e-474b-85ea-0c0e1b78ef2f}; ! Name of Object 1

