
OS:Version,
  {ab7478af-f490-4f5a-a04e-dbab0733280d}, ! Handle
  0.9.3;                                  ! Version Identifier

OS:SizingPeriod:DesignDay,
  {1bdcf93a-e796-43f2-ad09-aa5574e93f83}, ! Handle
  Mcconnell Afb Ann Htg Wind 99.6% Condns WS=>MCDB, ! Name
  4.5,                                    ! Maximum Dry-Bulb Temperature {C}
  0,                                      ! Daily Dry-Bulb Temperature Range {deltaC}
  4.5,                                    ! Humidity Indicating Conditions at Maximum Dry-Bulb {BasedOnField A3}
  96449,                                  ! Barometric Pressure {Pa}
  12.8,                                   ! Wind Speed {m/s}
  0,                                      ! Wind Direction {deg}
  0,                                      ! Sky Clearness
  0,                                      ! Rain Indicator
  0,                                      ! Snow Indicator
  21,                                     ! Day of Month
  1,                                      ! Month
  WinterDesignDay,                        ! Day Type
  0,                                      ! Daylight Saving Time Indicator
  Wetbulb,                                ! Humidity Indicating Type
  ,                                       ! Humidity Indicating Day Schedule Name
  DefaultMultipliers,                     ! Dry-Bulb Temperature Range Modifier Type
  ,                                       ! Dry-Bulb Temperature Range Modifier Schedule Name
  ASHRAEClearSky;                         ! Solar Model Indicator

OS:ComponentData,
  {66e69dd7-420f-4864-ab39-66eac20e168d}, ! Handle
  Component Data 1,                       ! Name
  {10152af3-1d65-4c76-a889-c42cfd292a08}, ! UUID
  {e305c8e3-e35e-4b16-9a62-e79ce71cc47d}, ! Version UUID
  1366307598,                             ! Creation Timestamp
  1366307598,                             ! Version Timestamp
  {1bdcf93a-e796-43f2-ad09-aa5574e93f83}; ! Name of Object 1

