
OS:Version,
  {f3e86354-8394-4e57-a69c-997dc8b8b9c5}, ! Handle
  0.9.3;                                  ! Version Identifier

OS:SizingPeriod:DesignDay,
  {5349b18c-c6d1-49cf-ab9b-78ec9c581244}, ! Handle
  MERIDIAN Ann Htg Wind 99.6% Condns WS=>MCDB, ! Name
  13.5,                                   ! Maximum Dry-Bulb Temperature {C}
  0,                                      ! Daily Dry-Bulb Temperature Range {deltaC}
  13.5,                                   ! Humidity Indicating Conditions at Maximum Dry-Bulb {BasedOnField A3}
  100201,                                 ! Barometric Pressure {Pa}
  9.4,                                    ! Wind Speed {m/s}
  0,                                      ! Wind Direction {deg}
  0,                                      ! Sky Clearness
  0,                                      ! Rain Indicator
  0,                                      ! Snow Indicator
  21,                                     ! Day of Month
  1,                                      ! Month
  WinterDesignDay,                        ! Day Type
  0,                                      ! Daylight Saving Time Indicator
  Wetbulb,                                ! Humidity Indicating Type
  ,                                       ! Humidity Indicating Day Schedule Name
  DefaultMultipliers,                     ! Dry-Bulb Temperature Range Modifier Type
  ,                                       ! Dry-Bulb Temperature Range Modifier Schedule Name
  ASHRAEClearSky;                         ! Solar Model Indicator

OS:ComponentData,
  {ed392ad8-8303-4528-b3b3-8597eee5ec3d}, ! Handle
  Component Data 1,                       ! Name
  {fe7984c8-1316-47af-98b0-343295510d39}, ! UUID
  {642efae8-5228-44aa-8507-0adfe78bb156}, ! Version UUID
  1366308672,                             ! Creation Timestamp
  1366308672,                             ! Version Timestamp
  {5349b18c-c6d1-49cf-ab9b-78ec9c581244}; ! Name of Object 1

