
OS:Version,
  {17bdae2b-3486-4bc7-9d1e-f5bade341374}, ! Handle
  0.9.3;                                  ! Version Identifier

OS:SizingPeriod:DesignDay,
  {1c78cda6-65a8-472d-a154-1353ce11e3c0}, ! Handle
  SPRINGFIELD Ann Clg 1% Condns DB=>MWB,  ! Name
  32.5,                                   ! Maximum Dry-Bulb Temperature {C}
  10.7,                                   ! Daily Dry-Bulb Temperature Range {deltaC}
  24.2,                                   ! Humidity Indicating Conditions at Maximum Dry-Bulb {BasedOnField A3}
  99099,                                  ! Barometric Pressure {Pa}
  4.6,                                    ! Wind Speed {m/s}
  230,                                    ! Wind Direction {deg}
  0,                                      ! Sky Clearness
  0,                                      ! Rain Indicator
  0,                                      ! Snow Indicator
  21,                                     ! Day of Month
  7,                                      ! Month
  SummerDesignDay,                        ! Day Type
  0,                                      ! Daylight Saving Time Indicator
  Wetbulb,                                ! Humidity Indicating Type
  ,                                       ! Humidity Indicating Day Schedule Name
  DefaultMultipliers,                     ! Dry-Bulb Temperature Range Modifier Type
  ,                                       ! Dry-Bulb Temperature Range Modifier Schedule Name
  ASHRAETau,                              ! Solar Model Indicator
  ,                                       ! Beam Solar Day Schedule Name
  ,                                       ! Diffuse Solar Day Schedule Name
  0.463,                                  ! ASHRAE Taub {dimensionless}
  2.022;                                  ! ASHRAE Taud {dimensionless}

OS:ComponentData,
  {efcbff75-55ac-44e8-aaf4-41111092ebae}, ! Handle
  Component Data 1,                       ! Name
  {d501ab8d-cd97-4c6a-95e1-33fe69da0585}, ! UUID
  {f83c6498-535c-4989-a2b8-f6c7a46eab1c}, ! Version UUID
  1366307408,                             ! Creation Timestamp
  1366307408,                             ! Version Timestamp
  {1c78cda6-65a8-472d-a154-1353ce11e3c0}; ! Name of Object 1

