
OS:Version,
  {9f894d4f-d2db-4834-b1a2-cc79597eaa6f}, ! Handle
  0.9.3;                                  ! Version Identifier

OS:SizingPeriod:DesignDay,
  {ce61b385-a2cd-4250-ac2a-464f0ff57caa}, ! Handle
  Roanoke Regional Ap Ann Clg 1% Condns WB=>MDB, ! Name
  29.6,                                   ! Maximum Dry-Bulb Temperature {C}
  10.6,                                   ! Daily Dry-Bulb Temperature Range {deltaC}
  23.6,                                   ! Humidity Indicating Conditions at Maximum Dry-Bulb {BasedOnField A3}
  97190,                                  ! Barometric Pressure {Pa}
  4,                                      ! Wind Speed {m/s}
  280,                                    ! Wind Direction {deg}
  0,                                      ! Sky Clearness
  0,                                      ! Rain Indicator
  0,                                      ! Snow Indicator
  21,                                     ! Day of Month
  7,                                      ! Month
  SummerDesignDay,                        ! Day Type
  0,                                      ! Daylight Saving Time Indicator
  Wetbulb,                                ! Humidity Indicating Type
  ,                                       ! Humidity Indicating Day Schedule Name
  DefaultMultipliers,                     ! Dry-Bulb Temperature Range Modifier Type
  ,                                       ! Dry-Bulb Temperature Range Modifier Schedule Name
  ASHRAETau,                              ! Solar Model Indicator
  ,                                       ! Beam Solar Day Schedule Name
  ,                                       ! Diffuse Solar Day Schedule Name
  0.529,                                  ! ASHRAE Taub {dimensionless}
  1.818;                                  ! ASHRAE Taud {dimensionless}

OS:ComponentData,
  {fafe99da-0bf1-4935-b9a4-2097109f3403}, ! Handle
  Component Data 1,                       ! Name
  {3cae294b-b02f-4419-9e0b-c8199f72ac0b}, ! UUID
  {237b0500-5fe9-4335-a4e6-f7eab49d712c}, ! Version UUID
  1366311191,                             ! Creation Timestamp
  1366311191,                             ! Version Timestamp
  {ce61b385-a2cd-4250-ac2a-464f0ff57caa}; ! Name of Object 1

