
OS:Version,
  {8bc0eb57-ea89-4162-a2b5-0a62d13db0d6}, ! Handle
  0.9.3;                                  ! Version Identifier

OS:SizingPeriod:DesignDay,
  {9724c8fe-e534-4643-9ec3-570b2598d30e}, ! Handle
  Wilmington International Arpt Ann Htg Wind 99% Condns WS=>MCDB, ! Name
  11.1,                                   ! Maximum Dry-Bulb Temperature {C}
  0,                                      ! Daily Dry-Bulb Temperature Range {deltaC}
  11.1,                                   ! Humidity Indicating Conditions at Maximum Dry-Bulb {BasedOnField A3}
  101217,                                 ! Barometric Pressure {Pa}
  9.7,                                    ! Wind Speed {m/s}
  0,                                      ! Wind Direction {deg}
  0,                                      ! Sky Clearness
  0,                                      ! Rain Indicator
  0,                                      ! Snow Indicator
  21,                                     ! Day of Month
  1,                                      ! Month
  WinterDesignDay,                        ! Day Type
  0,                                      ! Daylight Saving Time Indicator
  Wetbulb,                                ! Humidity Indicating Type
  ,                                       ! Humidity Indicating Day Schedule Name
  DefaultMultipliers,                     ! Dry-Bulb Temperature Range Modifier Type
  ,                                       ! Dry-Bulb Temperature Range Modifier Schedule Name
  ASHRAEClearSky;                         ! Solar Model Indicator

OS:ComponentData,
  {aaf409c3-e030-495a-9d79-667aa788e036}, ! Handle
  Component Data 1,                       ! Name
  {8c76b822-34a5-4977-bfe6-46e48820e958}, ! UUID
  {61ee8c02-40a9-4515-8227-496997388c7e}, ! Version UUID
  1366308989,                             ! Creation Timestamp
  1366308989,                             ! Version Timestamp
  {9724c8fe-e534-4643-9ec3-570b2598d30e}; ! Name of Object 1

