
OS:Version,
  {71edd2f8-e2ec-4ea2-8595-7696973d1317}, ! Handle
  0.9.3;                                  ! Version Identifier

OS:SizingPeriod:DesignDay,
  {84973c39-9303-4ea4-9a47-53aec0d8ef4b}, ! Handle
  SAULT_STE. Ann Htg Wind 99% Condns WS=>MCDB, ! Name
  -6.5,                                   ! Maximum Dry-Bulb Temperature {C}
  0,                                      ! Daily Dry-Bulb Temperature Range {deltaC}
  -6.5,                                   ! Humidity Indicating Conditions at Maximum Dry-Bulb {BasedOnField A3}
  98698,                                  ! Barometric Pressure {Pa}
  10.2,                                   ! Wind Speed {m/s}
  90,                                     ! Wind Direction {deg}
  0,                                      ! Sky Clearness
  0,                                      ! Rain Indicator
  0,                                      ! Snow Indicator
  21,                                     ! Day of Month
  1,                                      ! Month
  WinterDesignDay,                        ! Day Type
  0,                                      ! Daylight Saving Time Indicator
  Wetbulb,                                ! Humidity Indicating Type
  ,                                       ! Humidity Indicating Day Schedule Name
  DefaultMultipliers,                     ! Dry-Bulb Temperature Range Modifier Type
  ,                                       ! Dry-Bulb Temperature Range Modifier Schedule Name
  ASHRAEClearSky;                         ! Solar Model Indicator

OS:ComponentData,
  {2292fc04-dda2-4dfb-ad0c-058e6d5f3ba1}, ! Handle
  Component Data 1,                       ! Name
  {ad11d2ad-566f-4307-8074-9359425214b6}, ! UUID
  {5ccd26ea-f8a0-4056-a0c1-0ad448a7b2b8}, ! Version UUID
  1366308109,                             ! Creation Timestamp
  1366308109,                             ! Version Timestamp
  {84973c39-9303-4ea4-9a47-53aec0d8ef4b}; ! Name of Object 1

