
OS:Version,
  {aac45b02-4e90-4f83-8f59-f91dfd249cba}, ! Handle
  0.9.3;                                  ! Version Identifier

OS:SizingPeriod:DesignDay,
  {77e79d1c-21ab-4e6a-8311-473f9061e7a3}, ! Handle
  MIDLAND Ann Clg 1% Condns DB=>MWB,      ! Name
  36.7,                                   ! Maximum Dry-Bulb Temperature {C}
  13.1,                                   ! Daily Dry-Bulb Temperature Range {deltaC}
  19.7,                                   ! Humidity Indicating Conditions at Maximum Dry-Bulb {BasedOnField A3}
  91290,                                  ! Barometric Pressure {Pa}
  5.7,                                    ! Wind Speed {m/s}
  150,                                    ! Wind Direction {deg}
  0,                                      ! Sky Clearness
  0,                                      ! Rain Indicator
  0,                                      ! Snow Indicator
  21,                                     ! Day of Month
  7,                                      ! Month
  SummerDesignDay,                        ! Day Type
  0,                                      ! Daylight Saving Time Indicator
  Wetbulb,                                ! Humidity Indicating Type
  ,                                       ! Humidity Indicating Day Schedule Name
  DefaultMultipliers,                     ! Dry-Bulb Temperature Range Modifier Type
  ,                                       ! Dry-Bulb Temperature Range Modifier Schedule Name
  ASHRAETau,                              ! Solar Model Indicator
  ,                                       ! Beam Solar Day Schedule Name
  ,                                       ! Diffuse Solar Day Schedule Name
  0.443,                                  ! ASHRAE Taub {dimensionless}
  2.032;                                  ! ASHRAE Taud {dimensionless}

OS:ComponentData,
  {78d48e00-74b4-4584-ad57-0d417806a21a}, ! Handle
  Component Data 1,                       ! Name
  {437c3c61-ed0a-46b4-b68a-54ea7e7a1a5b}, ! UUID
  {048fe92f-2f00-4de9-af96-5f0b63de9743}, ! Version UUID
  1366310827,                             ! Creation Timestamp
  1366310827,                             ! Version Timestamp
  {77e79d1c-21ab-4e6a-8311-473f9061e7a3}; ! Name of Object 1

