
OS:Version,
  {707cd454-a79d-47f3-bc8c-a5f6560dedef}, ! Handle
  0.9.3;                                  ! Version Identifier

OS:SizingPeriod:DesignDay,
  {a6ae42d3-d038-4d76-99c8-703575ad120f}, ! Handle
  Salinas Municipal Ap Ann Clg 2% Condns DP=>MDB, ! Name
  18.8,                                   ! Maximum Dry-Bulb Temperature {C}
  8.7,                                    ! Daily Dry-Bulb Temperature Range {deltaC}
  14.9,                                   ! Humidity Indicating Conditions at Maximum Dry-Bulb {BasedOnField A3}
  101073,                                 ! Barometric Pressure {Pa}
  4.6,                                    ! Wind Speed {m/s}
  310,                                    ! Wind Direction {deg}
  0,                                      ! Sky Clearness
  0,                                      ! Rain Indicator
  0,                                      ! Snow Indicator
  21,                                     ! Day of Month
  8,                                      ! Month
  SummerDesignDay,                        ! Day Type
  0,                                      ! Daylight Saving Time Indicator
  Dewpoint,                               ! Humidity Indicating Type
  ,                                       ! Humidity Indicating Day Schedule Name
  DefaultMultipliers,                     ! Dry-Bulb Temperature Range Modifier Type
  ,                                       ! Dry-Bulb Temperature Range Modifier Schedule Name
  ASHRAETau,                              ! Solar Model Indicator
  ,                                       ! Beam Solar Day Schedule Name
  ,                                       ! Diffuse Solar Day Schedule Name
  0.376,                                  ! ASHRAE Taub {dimensionless}
  2.428;                                  ! ASHRAE Taud {dimensionless}

OS:ComponentData,
  {cd8064f3-4ac1-48ee-bead-ca2faa8a5041}, ! Handle
  Component Data 1,                       ! Name
  {36322e5b-bb66-4687-9476-3572252b3761}, ! UUID
  {ba8ed6b0-797d-4020-8db9-de5373704d6c}, ! Version UUID
  1366306571,                             ! Creation Timestamp
  1366306571,                             ! Version Timestamp
  {a6ae42d3-d038-4d76-99c8-703575ad120f}; ! Name of Object 1

