
OS:Version,
  {70aa07e3-cc32-4fff-9023-148e54246624}, ! Handle
  0.9.3;                                  ! Version Identifier

OS:SizingPeriod:DesignDay,
  {9e2a9069-f331-4d56-93aa-b8ce24a39c02}, ! Handle
  PHOENIX Ann Clg 1% Condns DB=>MWB,      ! Name
  42.3,                                   ! Maximum Dry-Bulb Temperature {C}
  12,                                     ! Daily Dry-Bulb Temperature Range {deltaC}
  21,                                     ! Humidity Indicating Conditions at Maximum Dry-Bulb {BasedOnField A3}
  97318,                                  ! Barometric Pressure {Pa}
  4.1,                                    ! Wind Speed {m/s}
  260,                                    ! Wind Direction {deg}
  0,                                      ! Sky Clearness
  0,                                      ! Rain Indicator
  0,                                      ! Snow Indicator
  21,                                     ! Day of Month
  7,                                      ! Month
  SummerDesignDay,                        ! Day Type
  0,                                      ! Daylight Saving Time Indicator
  Wetbulb,                                ! Humidity Indicating Type
  ,                                       ! Humidity Indicating Day Schedule Name
  DefaultMultipliers,                     ! Dry-Bulb Temperature Range Modifier Type
  ,                                       ! Dry-Bulb Temperature Range Modifier Schedule Name
  ASHRAETau,                              ! Solar Model Indicator
  ,                                       ! Beam Solar Day Schedule Name
  ,                                       ! Diffuse Solar Day Schedule Name
  0.588,                                  ! ASHRAE Taub {dimensionless}
  1.653;                                  ! ASHRAE Taud {dimensionless}

OS:ComponentData,
  {9f1d9c92-80db-4641-a35a-b2dbe2ebb3ff}, ! Handle
  Component Data 1,                       ! Name
  {d0350a2b-d2fa-437a-a637-870ad1cae18b}, ! UUID
  {b8bad72a-690b-4912-85f3-8383ccc82c44}, ! Version UUID
  1366306298,                             ! Creation Timestamp
  1366306298,                             ! Version Timestamp
  {9e2a9069-f331-4d56-93aa-b8ce24a39c02}; ! Name of Object 1

