
OS:Version,
  {d0a1d700-4ad4-458a-b422-7350c0a2f6fe}, ! Handle
  0.9.3;                                  ! Version Identifier

OS:SizingPeriod:DesignDay,
  {e4412ee0-9d5c-4177-8696-a2f5ef24cde3}, ! Handle
  San Diego Lindbergh Field Ann Htg Wind 99.6% Condns WS=>MCDB, ! Name
  14.6,                                   ! Maximum Dry-Bulb Temperature {C}
  0,                                      ! Daily Dry-Bulb Temperature Range {deltaC}
  14.6,                                   ! Humidity Indicating Conditions at Maximum Dry-Bulb {BasedOnField A3}
  101277,                                 ! Barometric Pressure {Pa}
  10.3,                                   ! Wind Speed {m/s}
  340,                                    ! Wind Direction {deg}
  0,                                      ! Sky Clearness
  0,                                      ! Rain Indicator
  0,                                      ! Snow Indicator
  21,                                     ! Day of Month
  12,                                     ! Month
  WinterDesignDay,                        ! Day Type
  0,                                      ! Daylight Saving Time Indicator
  Wetbulb,                                ! Humidity Indicating Type
  ,                                       ! Humidity Indicating Day Schedule Name
  DefaultMultipliers,                     ! Dry-Bulb Temperature Range Modifier Type
  ,                                       ! Dry-Bulb Temperature Range Modifier Schedule Name
  ASHRAEClearSky;                         ! Solar Model Indicator

OS:ComponentData,
  {aa1a1c2d-3406-4325-9cc3-0ed22bd2f779}, ! Handle
  Component Data 1,                       ! Name
  {52bd180d-e702-4cd8-a6bf-7acabc613cda}, ! UUID
  {2e44e51d-ba1f-43af-bb14-fea6f62e9861}, ! Version UUID
  1366306575,                             ! Creation Timestamp
  1366306575,                             ! Version Timestamp
  {e4412ee0-9d5c-4177-8696-a2f5ef24cde3}; ! Name of Object 1

