
OS:Version,
  {637fa6ef-5d7e-4602-b93e-863a7d2f310b}, ! Handle
  0.9.3;                                  ! Version Identifier

OS:SizingPeriod:DesignDay,
  {16ceba0f-45b6-487b-9e63-c2f90ef11ac7}, ! Handle
  St Louis/Int'l Airport Ann Clg 1% Condns Enth=>MDB, ! Name
  31.8,                                   ! Maximum Dry-Bulb Temperature {C}
  9.5,                                    ! Daily Dry-Bulb Temperature Range {deltaC}
  80000,                                  ! Humidity Indicating Conditions at Maximum Dry-Bulb {BasedOnField A3}
  99276,                                  ! Barometric Pressure {Pa}
  4.6,                                    ! Wind Speed {m/s}
  240,                                    ! Wind Direction {deg}
  0,                                      ! Sky Clearness
  0,                                      ! Rain Indicator
  0,                                      ! Snow Indicator
  21,                                     ! Day of Month
  7,                                      ! Month
  SummerDesignDay,                        ! Day Type
  0,                                      ! Daylight Saving Time Indicator
  Enthalpy,                               ! Humidity Indicating Type
  ,                                       ! Humidity Indicating Day Schedule Name
  DefaultMultipliers,                     ! Dry-Bulb Temperature Range Modifier Type
  ,                                       ! Dry-Bulb Temperature Range Modifier Schedule Name
  ASHRAETau,                              ! Solar Model Indicator
  ,                                       ! Beam Solar Day Schedule Name
  ,                                       ! Diffuse Solar Day Schedule Name
  0.47,                                   ! ASHRAE Taub {dimensionless}
  2.004;                                  ! ASHRAE Taud {dimensionless}

OS:ComponentData,
  {7a3f1766-c093-4e75-a809-b0721a6bf5e0}, ! Handle
  Component Data 1,                       ! Name
  {dc1a6109-cbff-424f-b207-aaff5e502af9}, ! UUID
  {aa5c4292-d464-4303-b013-7c5f7aaa1d20}, ! Version UUID
  1366308581,                             ! Creation Timestamp
  1366308581,                             ! Version Timestamp
  {16ceba0f-45b6-487b-9e63-c2f90ef11ac7}; ! Name of Object 1

