
OS:Version,
  {5497bca3-3960-49eb-b04c-6aef0b2b4a92}, ! Handle
  0.9.3;                                  ! Version Identifier

OS:SizingPeriod:DesignDay,
  {ff98b21d-3caa-4c5b-89c9-4b949fe71bcd}, ! Handle
  Sherman-Denison Ann Clg 1% Condns WB=>MDB, ! Name
  33.1,                                   ! Maximum Dry-Bulb Temperature {C}
  13.1,                                   ! Daily Dry-Bulb Temperature Range {deltaC}
  25.5,                                   ! Humidity Indicating Conditions at Maximum Dry-Bulb {BasedOnField A3}
  98557,                                  ! Barometric Pressure {Pa}
  4,                                      ! Wind Speed {m/s}
  130,                                    ! Wind Direction {deg}
  0,                                      ! Sky Clearness
  0,                                      ! Rain Indicator
  0,                                      ! Snow Indicator
  21,                                     ! Day of Month
  8,                                      ! Month
  SummerDesignDay,                        ! Day Type
  0,                                      ! Daylight Saving Time Indicator
  Wetbulb,                                ! Humidity Indicating Type
  ,                                       ! Humidity Indicating Day Schedule Name
  DefaultMultipliers,                     ! Dry-Bulb Temperature Range Modifier Type
  ,                                       ! Dry-Bulb Temperature Range Modifier Schedule Name
  ASHRAETau,                              ! Solar Model Indicator
  ,                                       ! Beam Solar Day Schedule Name
  ,                                       ! Diffuse Solar Day Schedule Name
  0.477,                                  ! ASHRAE Taub {dimensionless}
  2.02;                                   ! ASHRAE Taud {dimensionless}

OS:ComponentData,
  {5bf8b697-0895-41f3-b0b1-be7d18d1cd79}, ! Handle
  Component Data 1,                       ! Name
  {81d0a5e9-e180-44a1-a643-5bd7870290cb}, ! UUID
  {349d9849-bfed-46a9-aeeb-4442ac728898}, ! Version UUID
  1366310903,                             ! Creation Timestamp
  1366310903,                             ! Version Timestamp
  {ff98b21d-3caa-4c5b-89c9-4b949fe71bcd}; ! Name of Object 1

