
OS:Version,
  {e3683235-dcab-4d93-ae90-84b6d03294c8}, ! Handle
  0.9.3;                                  ! Version Identifier

OS:SizingPeriod:DesignDay,
  {91b0ee00-bbf4-4d43-adf7-8ef6461ad0b5}, ! Handle
  Quillayute State Airport Ann Clg 1% Condns DB=>MWB, ! Name
  23.8,                                   ! Maximum Dry-Bulb Temperature {C}
  9.8,                                    ! Daily Dry-Bulb Temperature Range {deltaC}
  16.2,                                   ! Humidity Indicating Conditions at Maximum Dry-Bulb {BasedOnField A3}
  100666,                                 ! Barometric Pressure {Pa}
  3.7,                                    ! Wind Speed {m/s}
  240,                                    ! Wind Direction {deg}
  0,                                      ! Sky Clearness
  0,                                      ! Rain Indicator
  0,                                      ! Snow Indicator
  21,                                     ! Day of Month
  8,                                      ! Month
  SummerDesignDay,                        ! Day Type
  0,                                      ! Daylight Saving Time Indicator
  Wetbulb,                                ! Humidity Indicating Type
  ,                                       ! Humidity Indicating Day Schedule Name
  DefaultMultipliers,                     ! Dry-Bulb Temperature Range Modifier Type
  ,                                       ! Dry-Bulb Temperature Range Modifier Schedule Name
  ASHRAETau,                              ! Solar Model Indicator
  ,                                       ! Beam Solar Day Schedule Name
  ,                                       ! Diffuse Solar Day Schedule Name
  0.351,                                  ! ASHRAE Taub {dimensionless}
  2.578;                                  ! ASHRAE Taud {dimensionless}

OS:ComponentData,
  {846025d7-b629-499a-9ae6-b68fbab7d42f}, ! Handle
  Component Data 1,                       ! Name
  {bd05d735-18bd-4911-94e9-946923aa6812}, ! UUID
  {dd26db5f-3d69-4fbd-be97-8250d65f496d}, ! Version UUID
  1366311341,                             ! Creation Timestamp
  1366311341,                             ! Version Timestamp
  {91b0ee00-bbf4-4d43-adf7-8ef6461ad0b5}; ! Name of Object 1

