
OS:Version,
  {c2541fe9-206b-4768-82f3-7b0c915c77ab}, ! Handle
  0.9.3;                                  ! Version Identifier

OS:SizingPeriod:DesignDay,
  {6ff9b30c-5cdf-443f-b06f-ebb5328b8f9c}, ! Handle
  North Bend Ann Htg Wind 99.6% Condns WS=>MCDB, ! Name
  12,                                     ! Maximum Dry-Bulb Temperature {C}
  0,                                      ! Daily Dry-Bulb Temperature Range {deltaC}
  12,                                     ! Humidity Indicating Conditions at Maximum Dry-Bulb {BasedOnField A3}
  101277,                                 ! Barometric Pressure {Pa}
  12.8,                                   ! Wind Speed {m/s}
  150,                                    ! Wind Direction {deg}
  0,                                      ! Sky Clearness
  0,                                      ! Rain Indicator
  0,                                      ! Snow Indicator
  21,                                     ! Day of Month
  12,                                     ! Month
  WinterDesignDay,                        ! Day Type
  0,                                      ! Daylight Saving Time Indicator
  Wetbulb,                                ! Humidity Indicating Type
  ,                                       ! Humidity Indicating Day Schedule Name
  DefaultMultipliers,                     ! Dry-Bulb Temperature Range Modifier Type
  ,                                       ! Dry-Bulb Temperature Range Modifier Schedule Name
  ASHRAEClearSky;                         ! Solar Model Indicator

OS:ComponentData,
  {6ba49678-3f11-4688-b61e-68d7236943d6}, ! Handle
  Component Data 1,                       ! Name
  {23ae9ab9-da73-4d18-b7c4-b68b77ccc13e}, ! UUID
  {e6d62e17-16da-4260-a4a4-e9718056f258}, ! Version UUID
  1366310048,                             ! Creation Timestamp
  1366310048,                             ! Version Timestamp
  {6ff9b30c-5cdf-443f-b06f-ebb5328b8f9c}; ! Name of Object 1

