
OS:Version,
  {1c52835f-72e2-4bff-86ba-33e95c74fe2f}, ! Handle
  0.9.3;                                  ! Version Identifier

OS:SizingPeriod:DesignDay,
  {b5cab9e2-48f4-469f-9ae8-f429a4b72897}, ! Handle
  Millville Municipal Ap Ann Clg 2% Condns Enth=>MDB, ! Name
  28.4,                                   ! Maximum Dry-Bulb Temperature {C}
  10.4,                                   ! Daily Dry-Bulb Temperature Range {deltaC}
  72800,                                  ! Humidity Indicating Conditions at Maximum Dry-Bulb {BasedOnField A3}
  101073,                                 ! Barometric Pressure {Pa}
  4.6,                                    ! Wind Speed {m/s}
  270,                                    ! Wind Direction {deg}
  0,                                      ! Sky Clearness
  0,                                      ! Rain Indicator
  0,                                      ! Snow Indicator
  21,                                     ! Day of Month
  7,                                      ! Month
  SummerDesignDay,                        ! Day Type
  0,                                      ! Daylight Saving Time Indicator
  Enthalpy,                               ! Humidity Indicating Type
  ,                                       ! Humidity Indicating Day Schedule Name
  DefaultMultipliers,                     ! Dry-Bulb Temperature Range Modifier Type
  ,                                       ! Dry-Bulb Temperature Range Modifier Schedule Name
  ASHRAETau,                              ! Solar Model Indicator
  ,                                       ! Beam Solar Day Schedule Name
  ,                                       ! Diffuse Solar Day Schedule Name
  0.564,                                  ! ASHRAE Taub {dimensionless}
  1.747;                                  ! ASHRAE Taud {dimensionless}

OS:ComponentData,
  {b2e565b5-712f-43b7-b578-9b28e0aee3e6}, ! Handle
  Component Data 1,                       ! Name
  {43458dd3-0c5b-4228-91ff-cb084c3a4aea}, ! UUID
  {813f6015-bc63-4002-8bc1-177a90cec836}, ! Version UUID
  1366309324,                             ! Creation Timestamp
  1366309324,                             ! Version Timestamp
  {b5cab9e2-48f4-469f-9ae8-f429a4b72897}; ! Name of Object 1

