
OS:Version,
  {28279cc9-9d3d-4512-a019-30ac0997b8b1}, ! Handle
  0.9.3;                                  ! Version Identifier

OS:SizingPeriod:DesignDay,
  {fff7c986-f5ee-4ea1-a6b6-8774df694f10}, ! Handle
  Skagway Airport Ann Htg Wind 99% Condns WS=>MCDB, ! Name
  -5,                                     ! Maximum Dry-Bulb Temperature {C}
  0,                                      ! Daily Dry-Bulb Temperature Range {deltaC}
  -5,                                     ! Humidity Indicating Conditions at Maximum Dry-Bulb {BasedOnField A3}
  101217,                                 ! Barometric Pressure {Pa}
  16.4,                                   ! Wind Speed {m/s}
  40,                                     ! Wind Direction {deg}
  0,                                      ! Sky Clearness
  0,                                      ! Rain Indicator
  0,                                      ! Snow Indicator
  21,                                     ! Day of Month
  1,                                      ! Month
  WinterDesignDay,                        ! Day Type
  0,                                      ! Daylight Saving Time Indicator
  Wetbulb,                                ! Humidity Indicating Type
  ,                                       ! Humidity Indicating Day Schedule Name
  DefaultMultipliers,                     ! Dry-Bulb Temperature Range Modifier Type
  ,                                       ! Dry-Bulb Temperature Range Modifier Schedule Name
  ASHRAEClearSky;                         ! Solar Model Indicator

OS:ComponentData,
  {682cfd42-8f06-45d1-9d45-2ab1d107a27f}, ! Handle
  Component Data 1,                       ! Name
  {22e60e1f-cd03-4e88-9aac-82cf59864510}, ! UUID
  {ed0c3bfa-df85-4c01-b0be-35fb09c3e63c}, ! Version UUID
  1366305558,                             ! Creation Timestamp
  1366305558,                             ! Version Timestamp
  {fff7c986-f5ee-4ea1-a6b6-8774df694f10}; ! Name of Object 1

