
OS:Version,
  {066f842e-481c-45de-bf3a-3ffee17ba30a}, ! Handle
  0.9.3;                                  ! Version Identifier

OS:SizingPeriod:DesignDay,
  {061445a9-9b59-4245-a403-2f5d39201aea}, ! Handle
  Tulsa International Airport Ann Htg Wind 99.6% Condns WS=>MCDB, ! Name
  12.9,                                   ! Maximum Dry-Bulb Temperature {C}
  0,                                      ! Daily Dry-Bulb Temperature Range {deltaC}
  12.9,                                   ! Humidity Indicating Conditions at Maximum Dry-Bulb {BasedOnField A3}
  98969,                                  ! Barometric Pressure {Pa}
  11.7,                                   ! Wind Speed {m/s}
  0,                                      ! Wind Direction {deg}
  0,                                      ! Sky Clearness
  0,                                      ! Rain Indicator
  0,                                      ! Snow Indicator
  21,                                     ! Day of Month
  1,                                      ! Month
  WinterDesignDay,                        ! Day Type
  0,                                      ! Daylight Saving Time Indicator
  Wetbulb,                                ! Humidity Indicating Type
  ,                                       ! Humidity Indicating Day Schedule Name
  DefaultMultipliers,                     ! Dry-Bulb Temperature Range Modifier Type
  ,                                       ! Dry-Bulb Temperature Range Modifier Schedule Name
  ASHRAEClearSky;                         ! Solar Model Indicator

OS:ComponentData,
  {437a1203-f2f7-42ef-b6ac-344adaeb9b59}, ! Handle
  Component Data 1,                       ! Name
  {37a05a7e-4fdb-4cb1-86d4-cf9efc992ffc}, ! UUID
  {a59eb000-a682-42bf-a102-10fadbb7986e}, ! Version UUID
  1366309957,                             ! Creation Timestamp
  1366309957,                             ! Version Timestamp
  {061445a9-9b59-4245-a403-2f5d39201aea}; ! Name of Object 1

