
OS:Version,
  {57ef087f-61de-47a4-b712-50d1b02b592b}, ! Handle
  0.9.3;                                  ! Version Identifier

OS:SizingPeriod:DesignDay,
  {3c959420-03f3-4bbd-a1bf-beaf23f1ba8d}, ! Handle
  Wausau Municipal Arpt Ann Hum_n 99% Condns DP=>MCDB, ! Name
  -21.6,                                  ! Maximum Dry-Bulb Temperature {C}
  0,                                      ! Daily Dry-Bulb Temperature Range {deltaC}
  -27.5,                                  ! Humidity Indicating Conditions at Maximum Dry-Bulb {BasedOnField A3}
  97005,                                  ! Barometric Pressure {Pa}
  3,                                      ! Wind Speed {m/s}
  300,                                    ! Wind Direction {deg}
  0,                                      ! Sky Clearness
  0,                                      ! Rain Indicator
  0,                                      ! Snow Indicator
  21,                                     ! Day of Month
  1,                                      ! Month
  WinterDesignDay,                        ! Day Type
  0,                                      ! Daylight Saving Time Indicator
  Dewpoint,                               ! Humidity Indicating Type
  ,                                       ! Humidity Indicating Day Schedule Name
  DefaultMultipliers,                     ! Dry-Bulb Temperature Range Modifier Type
  ,                                       ! Dry-Bulb Temperature Range Modifier Schedule Name
  ASHRAEClearSky;                         ! Solar Model Indicator

OS:ComponentData,
  {2acbdebf-30db-4463-b205-983c822903ef}, ! Handle
  Component Data 1,                       ! Name
  {982558c6-5de2-4b30-b4d1-238b907adefa}, ! UUID
  {ae664f97-a9b5-4cab-9f4e-8d5e28a4fa7c}, ! Version UUID
  1366311597,                             ! Creation Timestamp
  1366311597,                             ! Version Timestamp
  {3c959420-03f3-4bbd-a1bf-beaf23f1ba8d}; ! Name of Object 1

