
OS:Version,
  {1a90be60-2159-42e3-9fac-23f3753d7621}, ! Handle
  0.9.3;                                  ! Version Identifier

OS:SizingPeriod:DesignDay,
  {92108508-bdc7-4c5b-a2a6-3eeeaee96d1b}, ! Handle
  Nome Municipal Arpt Ann Clg 2% Condns Enth=>MDB, ! Name
  15.8,                                   ! Maximum Dry-Bulb Temperature {C}
  5.9,                                    ! Daily Dry-Bulb Temperature Range {deltaC}
  36000,                                  ! Humidity Indicating Conditions at Maximum Dry-Bulb {BasedOnField A3}
  101277,                                 ! Barometric Pressure {Pa}
  4.8,                                    ! Wind Speed {m/s}
  260,                                    ! Wind Direction {deg}
  0,                                      ! Sky Clearness
  0,                                      ! Rain Indicator
  0,                                      ! Snow Indicator
  21,                                     ! Day of Month
  7,                                      ! Month
  SummerDesignDay,                        ! Day Type
  0,                                      ! Daylight Saving Time Indicator
  Enthalpy,                               ! Humidity Indicating Type
  ,                                       ! Humidity Indicating Day Schedule Name
  DefaultMultipliers,                     ! Dry-Bulb Temperature Range Modifier Type
  ,                                       ! Dry-Bulb Temperature Range Modifier Schedule Name
  ASHRAETau,                              ! Solar Model Indicator
  ,                                       ! Beam Solar Day Schedule Name
  ,                                       ! Diffuse Solar Day Schedule Name
  0.408,                                  ! ASHRAE Taub {dimensionless}
  2.08;                                   ! ASHRAE Taud {dimensionless}

OS:ComponentData,
  {0c350f03-6057-4e02-aaad-3a7a7f8352cc}, ! Handle
  Component Data 1,                       ! Name
  {50441732-d6c9-4390-b0ab-3167eb9494d1}, ! UUID
  {5d982bba-8607-4ec8-91c0-f83add4b218e}, ! Version UUID
  1366305465,                             ! Creation Timestamp
  1366305465,                             ! Version Timestamp
  {92108508-bdc7-4c5b-a2a6-3eeeaee96d1b}; ! Name of Object 1

