
OS:Version,
  {b14b0979-ab47-4e69-a4f2-350c2ff7d2a3}, ! Handle
  0.9.3;                                  ! Version Identifier

OS:SizingPeriod:DesignDay,
  {5fe4361d-9e82-47e3-8a54-c81a2c56c0fb}, ! Handle
  San Antonio Intl Ap Ann Clg .4% Condns Enth=>MDB, ! Name
  31.1,                                   ! Maximum Dry-Bulb Temperature {C}
  11.2,                                   ! Daily Dry-Bulb Temperature Range {deltaC}
  79700,                                  ! Humidity Indicating Conditions at Maximum Dry-Bulb {BasedOnField A3}
  98393,                                  ! Barometric Pressure {Pa}
  4.3,                                    ! Wind Speed {m/s}
  160,                                    ! Wind Direction {deg}
  0,                                      ! Sky Clearness
  0,                                      ! Rain Indicator
  0,                                      ! Snow Indicator
  21,                                     ! Day of Month
  8,                                      ! Month
  SummerDesignDay,                        ! Day Type
  0,                                      ! Daylight Saving Time Indicator
  Enthalpy,                               ! Humidity Indicating Type
  ,                                       ! Humidity Indicating Day Schedule Name
  DefaultMultipliers,                     ! Dry-Bulb Temperature Range Modifier Type
  ,                                       ! Dry-Bulb Temperature Range Modifier Schedule Name
  ASHRAETau,                              ! Solar Model Indicator
  ,                                       ! Beam Solar Day Schedule Name
  ,                                       ! Diffuse Solar Day Schedule Name
  0.449,                                  ! ASHRAE Taub {dimensionless}
  2.144;                                  ! ASHRAE Taud {dimensionless}

OS:ComponentData,
  {ef7a3208-f2ae-4c1d-acbe-1b50034d4948}, ! Handle
  Component Data 1,                       ! Name
  {622156e1-bbd3-40f2-b9f4-a508beb2dffb}, ! UUID
  {b42f0acc-03e1-4964-81a6-f644c1602bbf}, ! Version UUID
  1366310899,                             ! Creation Timestamp
  1366310899,                             ! Version Timestamp
  {5fe4361d-9e82-47e3-8a54-c81a2c56c0fb}; ! Name of Object 1

