
OS:Version,
  {107c08fc-3966-4dc6-b6bd-cdd525a17aaa}, ! Handle
  0.9.3;                                  ! Version Identifier

OS:SizingPeriod:DesignDay,
  {ba868a27-15a5-433d-9059-91c7c2eabca9}, ! Handle
  Texarkana Webb Field Ann Clg 1% Condns Enth=>MDB, ! Name
  32.4,                                   ! Maximum Dry-Bulb Temperature {C}
  10.7,                                   ! Daily Dry-Bulb Temperature Range {deltaC}
  81200,                                  ! Humidity Indicating Conditions at Maximum Dry-Bulb {BasedOnField A3}
  100011,                                 ! Barometric Pressure {Pa}
  3.4,                                    ! Wind Speed {m/s}
  190,                                    ! Wind Direction {deg}
  0,                                      ! Sky Clearness
  0,                                      ! Rain Indicator
  0,                                      ! Snow Indicator
  21,                                     ! Day of Month
  7,                                      ! Month
  SummerDesignDay,                        ! Day Type
  0,                                      ! Daylight Saving Time Indicator
  Enthalpy,                               ! Humidity Indicating Type
  ,                                       ! Humidity Indicating Day Schedule Name
  DefaultMultipliers,                     ! Dry-Bulb Temperature Range Modifier Type
  ,                                       ! Dry-Bulb Temperature Range Modifier Schedule Name
  ASHRAETau,                              ! Solar Model Indicator
  ,                                       ! Beam Solar Day Schedule Name
  ,                                       ! Diffuse Solar Day Schedule Name
  0.486,                                  ! ASHRAE Taub {dimensionless}
  2.004;                                  ! ASHRAE Taud {dimensionless}

