
OS:Version,
  {83f954d1-a4f0-41ff-8eac-10be7d083f8d}, ! Handle
  0.9.3;                                  ! Version Identifier

OS:SizingPeriod:DesignDay,
  {4fdf975d-55eb-40e1-b05b-bb4c363c2a6a}, ! Handle
  Northway Airport Ann Clg .4% Condns DP=>MDB, ! Name
  16.5,                                   ! Maximum Dry-Bulb Temperature {C}
  11.3,                                   ! Daily Dry-Bulb Temperature Range {deltaC}
  12.9,                                   ! Humidity Indicating Conditions at Maximum Dry-Bulb {BasedOnField A3}
  95209,                                  ! Barometric Pressure {Pa}
  2.7,                                    ! Wind Speed {m/s}
  290,                                    ! Wind Direction {deg}
  0,                                      ! Sky Clearness
  0,                                      ! Rain Indicator
  0,                                      ! Snow Indicator
  21,                                     ! Day of Month
  7,                                      ! Month
  SummerDesignDay,                        ! Day Type
  0,                                      ! Daylight Saving Time Indicator
  Dewpoint,                               ! Humidity Indicating Type
  ,                                       ! Humidity Indicating Day Schedule Name
  DefaultMultipliers,                     ! Dry-Bulb Temperature Range Modifier Type
  ,                                       ! Dry-Bulb Temperature Range Modifier Schedule Name
  ASHRAETau,                              ! Solar Model Indicator
  ,                                       ! Beam Solar Day Schedule Name
  ,                                       ! Diffuse Solar Day Schedule Name
  0.398,                                  ! ASHRAE Taub {dimensionless}
  2.064;                                  ! ASHRAE Taud {dimensionless}

OS:ComponentData,
  {a2dc8475-8be7-4d3b-9e34-6926f3c7b4bf}, ! Handle
  Component Data 1,                       ! Name
  {faacc51d-b315-4d3a-94d7-8a232b9dc9a6}, ! UUID
  {a70b12fb-9bd3-4be3-b231-628fe023a152}, ! Version UUID
  1366305471,                             ! Creation Timestamp
  1366305471,                             ! Version Timestamp
  {4fdf975d-55eb-40e1-b05b-bb4c363c2a6a}; ! Name of Object 1

