
OS:Version,
  {9f343f40-245b-4265-be0a-585477940e0c}, ! Handle
  0.9.3;                                  ! Version Identifier

OS:SizingPeriod:DesignDay,
  {713ea92b-dd4a-47d6-990a-cab5c1fa464b}, ! Handle
  Mcalester Municipal Ap Ann Clg 2% Condns DP=>MDB, ! Name
  28.3,                                   ! Maximum Dry-Bulb Temperature {C}
  11.2,                                   ! Daily Dry-Bulb Temperature Range {deltaC}
  23.3,                                   ! Humidity Indicating Conditions at Maximum Dry-Bulb {BasedOnField A3}
  98569,                                  ! Barometric Pressure {Pa}
  3.9,                                    ! Wind Speed {m/s}
  200,                                    ! Wind Direction {deg}
  0,                                      ! Sky Clearness
  0,                                      ! Rain Indicator
  0,                                      ! Snow Indicator
  21,                                     ! Day of Month
  7,                                      ! Month
  SummerDesignDay,                        ! Day Type
  0,                                      ! Daylight Saving Time Indicator
  Dewpoint,                               ! Humidity Indicating Type
  ,                                       ! Humidity Indicating Day Schedule Name
  DefaultMultipliers,                     ! Dry-Bulb Temperature Range Modifier Type
  ,                                       ! Dry-Bulb Temperature Range Modifier Schedule Name
  ASHRAETau,                              ! Solar Model Indicator
  ,                                       ! Beam Solar Day Schedule Name
  ,                                       ! Diffuse Solar Day Schedule Name
  0.459,                                  ! ASHRAE Taub {dimensionless}
  2.091;                                  ! ASHRAE Taud {dimensionless}

OS:ComponentData,
  {55cb8ac7-bbae-49e0-8990-8bf15ddaff12}, ! Handle
  Component Data 1,                       ! Name
  {e150e6c0-64d9-4c9d-b251-848efcb8db67}, ! UUID
  {a76df869-a279-421d-acdb-5c727eab78b5}, ! Version UUID
  1366309909,                             ! Creation Timestamp
  1366309909,                             ! Version Timestamp
  {713ea92b-dd4a-47d6-990a-cab5c1fa464b}; ! Name of Object 1

