
OS:Version,
  {90c8ba0b-7885-49a7-96cf-399173f85e73}, ! Handle
  0.9.3;                                  ! Version Identifier

OS:SizingPeriod:DesignDay,
  {99e862f8-e3ce-482b-9e83-6a213ed0bf1d}, ! Handle
  Manassas Muni Awos Ann Clg 2% Condns DP=>MDB, ! Name
  26.9,                                   ! Maximum Dry-Bulb Temperature {C}
  11.3,                                   ! Daily Dry-Bulb Temperature Range {deltaC}
  22.1,                                   ! Humidity Indicating Conditions at Maximum Dry-Bulb {BasedOnField A3}
  100618,                                 ! Barometric Pressure {Pa}
  3.5,                                    ! Wind Speed {m/s}
  200,                                    ! Wind Direction {deg}
  0,                                      ! Sky Clearness
  0,                                      ! Rain Indicator
  0,                                      ! Snow Indicator
  21,                                     ! Day of Month
  7,                                      ! Month
  SummerDesignDay,                        ! Day Type
  0,                                      ! Daylight Saving Time Indicator
  Dewpoint,                               ! Humidity Indicating Type
  ,                                       ! Humidity Indicating Day Schedule Name
  DefaultMultipliers,                     ! Dry-Bulb Temperature Range Modifier Type
  ,                                       ! Dry-Bulb Temperature Range Modifier Schedule Name
  ASHRAETau,                              ! Solar Model Indicator
  ,                                       ! Beam Solar Day Schedule Name
  ,                                       ! Diffuse Solar Day Schedule Name
  0.555,                                  ! ASHRAE Taub {dimensionless}
  1.764;                                  ! ASHRAE Taud {dimensionless}

OS:ComponentData,
  {76c60791-3dba-470a-9a05-dfbd2d68130e}, ! Handle
  Component Data 1,                       ! Name
  {dd6ada47-b86c-46ef-9ae2-2c482f1d7bec}, ! UUID
  {6fc07569-a8c5-4991-9ce0-482a4defe9d7}, ! Version UUID
  1366311096,                             ! Creation Timestamp
  1366311096,                             ! Version Timestamp
  {99e862f8-e3ce-482b-9e83-6a213ed0bf1d}; ! Name of Object 1

