
OS:Version,
  {da799108-e828-4278-88ca-53d79c2f5844}, ! Handle
  0.9.3;                                  ! Version Identifier

OS:SizingPeriod:DesignDay,
  {df5505e6-1dd8-4143-bd37-eaaa6421311e}, ! Handle
  Poughkeepsie Dutchess Co Ap Ann Clg 1% Condns DB=>MWB, ! Name
  31.4,                                   ! Maximum Dry-Bulb Temperature {C}
  12.4,                                   ! Daily Dry-Bulb Temperature Range {deltaC}
  22.6,                                   ! Humidity Indicating Conditions at Maximum Dry-Bulb {BasedOnField A3}
  100762,                                 ! Barometric Pressure {Pa}
  3.9,                                    ! Wind Speed {m/s}
  240,                                    ! Wind Direction {deg}
  0,                                      ! Sky Clearness
  0,                                      ! Rain Indicator
  0,                                      ! Snow Indicator
  21,                                     ! Day of Month
  7,                                      ! Month
  SummerDesignDay,                        ! Day Type
  0,                                      ! Daylight Saving Time Indicator
  Wetbulb,                                ! Humidity Indicating Type
  ,                                       ! Humidity Indicating Day Schedule Name
  DefaultMultipliers,                     ! Dry-Bulb Temperature Range Modifier Type
  ,                                       ! Dry-Bulb Temperature Range Modifier Schedule Name
  ASHRAETau,                              ! Solar Model Indicator
  ,                                       ! Beam Solar Day Schedule Name
  ,                                       ! Diffuse Solar Day Schedule Name
  0.49,                                   ! ASHRAE Taub {dimensionless}
  1.93;                                   ! ASHRAE Taud {dimensionless}

OS:ComponentData,
  {c626dc59-60f5-4484-b55f-367e056eb21d}, ! Handle
  Component Data 1,                       ! Name
  {9df1d4ca-d94c-4f44-9804-c9f057ed1726}, ! UUID
  {595336fc-a80e-49d6-80f2-d4506dbd5dc5}, ! Version UUID
  1366309704,                             ! Creation Timestamp
  1366309704,                             ! Version Timestamp
  {df5505e6-1dd8-4143-bd37-eaaa6421311e}; ! Name of Object 1

