
OS:Version,
  {fc76a8ea-60ea-4955-9a5d-061a52415c7a}, ! Handle
  0.9.3;                                  ! Version Identifier

OS:SizingPeriod:DesignDay,
  {499225ec-7efc-4b77-8278-11f7504f858a}, ! Handle
  Olympia Airport Ann Clg .4% Condns WB=>MDB, ! Name
  29.3,                                   ! Maximum Dry-Bulb Temperature {C}
  14.6,                                   ! Daily Dry-Bulb Temperature Range {deltaC}
  19.9,                                   ! Humidity Indicating Conditions at Maximum Dry-Bulb {BasedOnField A3}
  100570,                                 ! Barometric Pressure {Pa}
  3.4,                                    ! Wind Speed {m/s}
  20,                                     ! Wind Direction {deg}
  0,                                      ! Sky Clearness
  0,                                      ! Rain Indicator
  0,                                      ! Snow Indicator
  21,                                     ! Day of Month
  8,                                      ! Month
  SummerDesignDay,                        ! Day Type
  0,                                      ! Daylight Saving Time Indicator
  Wetbulb,                                ! Humidity Indicating Type
  ,                                       ! Humidity Indicating Day Schedule Name
  DefaultMultipliers,                     ! Dry-Bulb Temperature Range Modifier Type
  ,                                       ! Dry-Bulb Temperature Range Modifier Schedule Name
  ASHRAETau,                              ! Solar Model Indicator
  ,                                       ! Beam Solar Day Schedule Name
  ,                                       ! Diffuse Solar Day Schedule Name
  0.359,                                  ! ASHRAE Taub {dimensionless}
  2.536;                                  ! ASHRAE Taud {dimensionless}

OS:ComponentData,
  {9d01c102-c20e-4390-aa61-7c78f6a9007b}, ! Handle
  Component Data 1,                       ! Name
  {54d5d53f-3e3a-4823-905d-a020b9bdb635}, ! UUID
  {cc35ba51-90cc-458b-9ff8-4d8aa23a1a47}, ! Version UUID
  1366311314,                             ! Creation Timestamp
  1366311314,                             ! Version Timestamp
  {499225ec-7efc-4b77-8278-11f7504f858a}; ! Name of Object 1

