
OS:Version,
  {9cad6464-2197-4134-ab3a-8d6255ff6977}, ! Handle
  0.9.3;                                  ! Version Identifier

OS:SizingPeriod:DesignDay,
  {a88f3c9b-5475-453f-a2f8-0a0209d6ecdf}, ! Handle
  Wrangell Ann Clg 2% Condns WB=>MDB,     ! Name
  17.3,                                   ! Maximum Dry-Bulb Temperature {C}
  5.6,                                    ! Daily Dry-Bulb Temperature Range {deltaC}
  14.1,                                   ! Humidity Indicating Conditions at Maximum Dry-Bulb {BasedOnField A3}
  101169,                                 ! Barometric Pressure {Pa}
  3.1,                                    ! Wind Speed {m/s}
  310,                                    ! Wind Direction {deg}
  0,                                      ! Sky Clearness
  0,                                      ! Rain Indicator
  0,                                      ! Snow Indicator
  21,                                     ! Day of Month
  7,                                      ! Month
  SummerDesignDay,                        ! Day Type
  0,                                      ! Daylight Saving Time Indicator
  Wetbulb,                                ! Humidity Indicating Type
  ,                                       ! Humidity Indicating Day Schedule Name
  DefaultMultipliers,                     ! Dry-Bulb Temperature Range Modifier Type
  ,                                       ! Dry-Bulb Temperature Range Modifier Schedule Name
  ASHRAETau,                              ! Solar Model Indicator
  ,                                       ! Beam Solar Day Schedule Name
  ,                                       ! Diffuse Solar Day Schedule Name
  0.394,                                  ! ASHRAE Taub {dimensionless}
  2.197;                                  ! ASHRAE Taud {dimensionless}

OS:ComponentData,
  {93523619-57ac-41e4-a9b8-a9909c6897f7}, ! Handle
  Component Data 1,                       ! Name
  {b7dea2c7-d689-44dd-8e19-036ba0c29e84}, ! UUID
  {42ae9dd2-61c4-4979-af68-b3729f715dd7}, ! Version UUID
  1366305618,                             ! Creation Timestamp
  1366305618,                             ! Version Timestamp
  {a88f3c9b-5475-453f-a2f8-0a0209d6ecdf}; ! Name of Object 1

