
OS:Version,
  {197a6b01-9db2-45d1-9e7c-023286eea767}, ! Handle
  0.9.3;                                  ! Version Identifier

OS:SizingPeriod:DesignDay,
  {1ff079bc-bf1c-4740-9c71-6a5bcafe46e1}, ! Handle
  Tonopah Ann Htg Wind 99% Condns WS=>MCDB, ! Name
  2.3,                                    ! Maximum Dry-Bulb Temperature {C}
  0,                                      ! Daily Dry-Bulb Temperature Range {deltaC}
  2.3,                                    ! Humidity Indicating Conditions at Maximum Dry-Bulb {BasedOnField A3}
  82970,                                  ! Barometric Pressure {Pa}
  11.8,                                   ! Wind Speed {m/s}
  350,                                    ! Wind Direction {deg}
  0,                                      ! Sky Clearness
  0,                                      ! Rain Indicator
  0,                                      ! Snow Indicator
  21,                                     ! Day of Month
  12,                                     ! Month
  WinterDesignDay,                        ! Day Type
  0,                                      ! Daylight Saving Time Indicator
  Wetbulb,                                ! Humidity Indicating Type
  ,                                       ! Humidity Indicating Day Schedule Name
  DefaultMultipliers,                     ! Dry-Bulb Temperature Range Modifier Type
  ,                                       ! Dry-Bulb Temperature Range Modifier Schedule Name
  ASHRAEClearSky;                         ! Solar Model Indicator

OS:ComponentData,
  {849639d0-b879-498a-90c2-48021eee1604}, ! Handle
  Component Data 1,                       ! Name
  {ce2e07c1-a832-46fb-9c68-f33b87928cd3}, ! UUID
  {5af68a08-e6c4-4ff1-9613-943b45707feb}, ! Version UUID
  1366309549,                             ! Creation Timestamp
  1366309549,                             ! Version Timestamp
  {1ff079bc-bf1c-4740-9c71-6a5bcafe46e1}; ! Name of Object 1

