
OS:Version,
  {0f0c11c8-6b33-40a2-b529-3bfe777f1946}, ! Handle
  0.9.3;                                  ! Version Identifier

OS:SizingPeriod:DesignDay,
  {e1c4324c-6d5c-4cf9-a513-96a960266bd4}, ! Handle
  Portland Intl Jetport Ann Clg 1% Condns DB=>MWB, ! Name
  28.6,                                   ! Maximum Dry-Bulb Temperature {C}
  10,                                     ! Daily Dry-Bulb Temperature Range {deltaC}
  20.9,                                   ! Humidity Indicating Conditions at Maximum Dry-Bulb {BasedOnField A3}
  101157,                                 ! Barometric Pressure {Pa}
  4.9,                                    ! Wind Speed {m/s}
  260,                                    ! Wind Direction {deg}
  0,                                      ! Sky Clearness
  0,                                      ! Rain Indicator
  0,                                      ! Snow Indicator
  21,                                     ! Day of Month
  7,                                      ! Month
  SummerDesignDay,                        ! Day Type
  0,                                      ! Daylight Saving Time Indicator
  Wetbulb,                                ! Humidity Indicating Type
  ,                                       ! Humidity Indicating Day Schedule Name
  DefaultMultipliers,                     ! Dry-Bulb Temperature Range Modifier Type
  ,                                       ! Dry-Bulb Temperature Range Modifier Schedule Name
  ASHRAETau,                              ! Solar Model Indicator
  ,                                       ! Beam Solar Day Schedule Name
  ,                                       ! Diffuse Solar Day Schedule Name
  0.477,                                  ! ASHRAE Taub {dimensionless}
  1.97;                                   ! ASHRAE Taud {dimensionless}

OS:ComponentData,
  {a5741017-197a-4328-9fae-ad858e30d92d}, ! Handle
  Component Data 1,                       ! Name
  {ecbc6c29-7afa-49d0-8e66-b98328b6e231}, ! UUID
  {b4c43aac-6be8-4067-8069-3a322afa058e}, ! Version UUID
  1366307914,                             ! Creation Timestamp
  1366307914,                             ! Version Timestamp
  {e1c4324c-6d5c-4cf9-a513-96a960266bd4}; ! Name of Object 1

