
OS:Version,
  {f6691082-56b0-463d-9b5a-64ac70b78ebd}, ! Handle
  0.9.3;                                  ! Version Identifier

OS:SizingPeriod:DesignDay,
  {400fabde-e275-4c7c-b4dd-cf4b86465c82}, ! Handle
  Marathon Airport Ann Clg 1% Condns WB=>MDB, ! Name
  31.2,                                   ! Maximum Dry-Bulb Temperature {C}
  5.5,                                    ! Daily Dry-Bulb Temperature Range {deltaC}
  27.6,                                   ! Humidity Indicating Conditions at Maximum Dry-Bulb {BasedOnField A3}
  101301,                                 ! Barometric Pressure {Pa}
  3.2,                                    ! Wind Speed {m/s}
  110,                                    ! Wind Direction {deg}
  0,                                      ! Sky Clearness
  0,                                      ! Rain Indicator
  0,                                      ! Snow Indicator
  21,                                     ! Day of Month
  8,                                      ! Month
  SummerDesignDay,                        ! Day Type
  0,                                      ! Daylight Saving Time Indicator
  Wetbulb,                                ! Humidity Indicating Type
  ,                                       ! Humidity Indicating Day Schedule Name
  DefaultMultipliers,                     ! Dry-Bulb Temperature Range Modifier Type
  ,                                       ! Dry-Bulb Temperature Range Modifier Schedule Name
  ASHRAETau,                              ! Solar Model Indicator
  ,                                       ! Beam Solar Day Schedule Name
  ,                                       ! Diffuse Solar Day Schedule Name
  0.467,                                  ! ASHRAE Taub {dimensionless}
  2.161;                                  ! ASHRAE Taud {dimensionless}

OS:ComponentData,
  {62a67b05-b418-47b2-babe-0870c7a73656}, ! Handle
  Component Data 1,                       ! Name
  {fad36554-86da-4746-ab05-fbc44c23c991}, ! UUID
  {7e28afe6-da39-490e-a3f3-a137739d7b96}, ! Version UUID
  1366306847,                             ! Creation Timestamp
  1366306847,                             ! Version Timestamp
  {400fabde-e275-4c7c-b4dd-cf4b86465c82}; ! Name of Object 1

