
OS:Version,
  {94a1afa7-089f-4348-a1a1-0f4d1fd48bf7}, ! Handle
  0.9.3;                                  ! Version Identifier

OS:SizingPeriod:DesignDay,
  {bc2791c8-a831-45ad-b4d3-b1485d23ed3f}, ! Handle
  Shannon Arpt Ann Htg 99% Condns DB,     ! Name
  -7.6,                                   ! Maximum Dry-Bulb Temperature {C}
  0,                                      ! Daily Dry-Bulb Temperature Range {deltaC}
  -7.6,                                   ! Humidity Indicating Conditions at Maximum Dry-Bulb {BasedOnField A3}
  101013,                                 ! Barometric Pressure {Pa}
  1.6,                                    ! Wind Speed {m/s}
  330,                                    ! Wind Direction {deg}
  0,                                      ! Sky Clearness
  0,                                      ! Rain Indicator
  0,                                      ! Snow Indicator
  21,                                     ! Day of Month
  1,                                      ! Month
  WinterDesignDay,                        ! Day Type
  0,                                      ! Daylight Saving Time Indicator
  Wetbulb,                                ! Humidity Indicating Type
  ,                                       ! Humidity Indicating Day Schedule Name
  DefaultMultipliers,                     ! Dry-Bulb Temperature Range Modifier Type
  ,                                       ! Dry-Bulb Temperature Range Modifier Schedule Name
  ASHRAEClearSky;                         ! Solar Model Indicator

OS:ComponentData,
  {783b10fd-8fc0-4c60-9bea-4232e92289ba}, ! Handle
  Component Data 1,                       ! Name
  {021fbd21-f090-4a21-81c3-a8513bd84185}, ! UUID
  {089e0c7e-0a9b-4314-ac65-99663ebd42ee}, ! Version UUID
  1366311051,                             ! Creation Timestamp
  1366311051,                             ! Version Timestamp
  {bc2791c8-a831-45ad-b4d3-b1485d23ed3f}; ! Name of Object 1

