
OS:Version,
  {127eed39-0cba-475a-8bd8-863a82168d39}, ! Handle
  0.9.3;                                  ! Version Identifier

OS:SizingPeriod:DesignDay,
  {fcd35b75-9cd6-41b8-a519-5ff18fd974b9}, ! Handle
  Pittsburgh Allegheny Co Ap Ann Htg 99.6% Condns DB, ! Name
  -15.4,                                  ! Maximum Dry-Bulb Temperature {C}
  0,                                      ! Daily Dry-Bulb Temperature Range {deltaC}
  -15.4,                                  ! Humidity Indicating Conditions at Maximum Dry-Bulb {BasedOnField A3}
  96842,                                  ! Barometric Pressure {Pa}
  4.7,                                    ! Wind Speed {m/s}
  240,                                    ! Wind Direction {deg}
  0,                                      ! Sky Clearness
  0,                                      ! Rain Indicator
  0,                                      ! Snow Indicator
  21,                                     ! Day of Month
  1,                                      ! Month
  WinterDesignDay,                        ! Day Type
  0,                                      ! Daylight Saving Time Indicator
  Wetbulb,                                ! Humidity Indicating Type
  ,                                       ! Humidity Indicating Day Schedule Name
  DefaultMultipliers,                     ! Dry-Bulb Temperature Range Modifier Type
  ,                                       ! Dry-Bulb Temperature Range Modifier Schedule Name
  ASHRAEClearSky;                         ! Solar Model Indicator

OS:ComponentData,
  {7e5c752f-6e2d-4db3-8925-83e458892202}, ! Handle
  Component Data 1,                       ! Name
  {18047277-731b-41d3-9d25-2d046ebccd05}, ! UUID
  {1f1b21cf-306c-4b5e-b593-f1e0e52c7424}, ! Version UUID
  1366310226,                             ! Creation Timestamp
  1366310226,                             ! Version Timestamp
  {fcd35b75-9cd6-41b8-a519-5ff18fd974b9}; ! Name of Object 1

