
OS:Version,
  {3ab516d6-db3e-4351-acf4-1a697cdf0623}, ! Handle
  0.9.3;                                  ! Version Identifier

OS:SizingPeriod:DesignDay,
  {7eb7d6ad-fd48-4b65-8da5-db9f8155aef6}, ! Handle
  Taos Muni Apt Awos Ann Clg 2% Condns DP=>MDB, ! Name
  17,                                     ! Maximum Dry-Bulb Temperature {C}
  18.1,                                   ! Daily Dry-Bulb Temperature Range {deltaC}
  10.8,                                   ! Humidity Indicating Conditions at Maximum Dry-Bulb {BasedOnField A3}
  77919,                                  ! Barometric Pressure {Pa}
  5.6,                                    ! Wind Speed {m/s}
  260,                                    ! Wind Direction {deg}
  0,                                      ! Sky Clearness
  0,                                      ! Rain Indicator
  0,                                      ! Snow Indicator
  21,                                     ! Day of Month
  7,                                      ! Month
  SummerDesignDay,                        ! Day Type
  0,                                      ! Daylight Saving Time Indicator
  Dewpoint,                               ! Humidity Indicating Type
  ,                                       ! Humidity Indicating Day Schedule Name
  DefaultMultipliers,                     ! Dry-Bulb Temperature Range Modifier Type
  ,                                       ! Dry-Bulb Temperature Range Modifier Schedule Name
  ASHRAETau,                              ! Solar Model Indicator
  ,                                       ! Beam Solar Day Schedule Name
  ,                                       ! Diffuse Solar Day Schedule Name
  0.399,                                  ! ASHRAE Taub {dimensionless}
  2.126;                                  ! ASHRAE Taud {dimensionless}

OS:ComponentData,
  {661251b7-4426-4f69-bdc8-575ef7136084}, ! Handle
  Component Data 1,                       ! Name
  {7aed5d67-9900-48c6-a2db-869d867eaf2f}, ! UUID
  {2ba1fc2e-5985-44c3-8f7e-de40f47b7935}, ! Version UUID
  1366309440,                             ! Creation Timestamp
  1366309440,                             ! Version Timestamp
  {7eb7d6ad-fd48-4b65-8da5-db9f8155aef6}; ! Name of Object 1

