
OS:Version,
  {b9961a89-559e-4468-9093-8e51f33b9b59}, ! Handle
  0.9.3;                                  ! Version Identifier

OS:SizingPeriod:DesignDay,
  {c7cfd4b2-37e5-4cf1-af1f-8c37ac674d4b}, ! Handle
  Russell Municipal Ap Ann Clg .4% Condns DB=>MWB, ! Name
  37.9,                                   ! Maximum Dry-Bulb Temperature {C}
  13.4,                                   ! Daily Dry-Bulb Temperature Range {deltaC}
  22.3,                                   ! Humidity Indicating Conditions at Maximum Dry-Bulb {BasedOnField A3}
  94708,                                  ! Barometric Pressure {Pa}
  7.9,                                    ! Wind Speed {m/s}
  180,                                    ! Wind Direction {deg}
  0,                                      ! Sky Clearness
  0,                                      ! Rain Indicator
  0,                                      ! Snow Indicator
  21,                                     ! Day of Month
  7,                                      ! Month
  SummerDesignDay,                        ! Day Type
  0,                                      ! Daylight Saving Time Indicator
  Wetbulb,                                ! Humidity Indicating Type
  ,                                       ! Humidity Indicating Day Schedule Name
  DefaultMultipliers,                     ! Dry-Bulb Temperature Range Modifier Type
  ,                                       ! Dry-Bulb Temperature Range Modifier Schedule Name
  ASHRAETau,                              ! Solar Model Indicator
  ,                                       ! Beam Solar Day Schedule Name
  ,                                       ! Diffuse Solar Day Schedule Name
  0.427,                                  ! ASHRAE Taub {dimensionless}
  2.131;                                  ! ASHRAE Taud {dimensionless}

OS:ComponentData,
  {24f35cdb-9e25-4058-9202-ee5c663432fd}, ! Handle
  Component Data 1,                       ! Name
  {d212f334-0d1c-41ec-8b6e-63e14fd9dbe8}, ! UUID
  {b6a589d0-2952-40dd-8151-5ba1aba2b6e0}, ! Version UUID
  1366307571,                             ! Creation Timestamp
  1366307571,                             ! Version Timestamp
  {c7cfd4b2-37e5-4cf1-af1f-8c37ac674d4b}; ! Name of Object 1

