
OS:Version,
  {7de4cdfe-a761-4bff-8add-11f699c44f78}, ! Handle
  0.9.3;                                  ! Version Identifier

OS:SizingPeriod:DesignDay,
  {cdf29ed0-563b-4cde-a857-246398a64277}, ! Handle
  Owatonna  Awos Ann Clg 1% Condns Enth=>MDB, ! Name
  28,                                     ! Maximum Dry-Bulb Temperature {C}
  10.6,                                   ! Daily Dry-Bulb Temperature Range {deltaC}
  75600,                                  ! Humidity Indicating Conditions at Maximum Dry-Bulb {BasedOnField A3}
  97190,                                  ! Barometric Pressure {Pa}
  5.6,                                    ! Wind Speed {m/s}
  170,                                    ! Wind Direction {deg}
  0,                                      ! Sky Clearness
  0,                                      ! Rain Indicator
  0,                                      ! Snow Indicator
  21,                                     ! Day of Month
  7,                                      ! Month
  SummerDesignDay,                        ! Day Type
  0,                                      ! Daylight Saving Time Indicator
  Enthalpy,                               ! Humidity Indicating Type
  ,                                       ! Humidity Indicating Day Schedule Name
  DefaultMultipliers,                     ! Dry-Bulb Temperature Range Modifier Type
  ,                                       ! Dry-Bulb Temperature Range Modifier Schedule Name
  ASHRAETau,                              ! Solar Model Indicator
  ,                                       ! Beam Solar Day Schedule Name
  ,                                       ! Diffuse Solar Day Schedule Name
  0.411,                                  ! ASHRAE Taub {dimensionless}
  2.201;                                  ! ASHRAE Taud {dimensionless}

OS:ComponentData,
  {34a51284-ab79-413b-bba5-6a7ba7b20bc4}, ! Handle
  Component Data 1,                       ! Name
  {13da03df-a297-47a4-a621-a46d8186f214}, ! UUID
  {4d9ac5d1-b49d-40c6-82bc-91389ec7cce8}, ! Version UUID
  1366308355,                             ! Creation Timestamp
  1366308355,                             ! Version Timestamp
  {cdf29ed0-563b-4cde-a857-246398a64277}; ! Name of Object 1

