
OS:Version,
  {2a970a79-6e9a-4326-ad44-f826b2afdadd}, ! Handle
  0.9.3;                                  ! Version Identifier

OS:SizingPeriod:DesignDay,
  {da575a0c-3ce8-4c80-9033-6a888eaeee75}, ! Handle
  Santa Maria Ann Clg 1% Condns DP=>MDB,  ! Name
  20.1,                                   ! Maximum Dry-Bulb Temperature {C}
  10.2,                                   ! Daily Dry-Bulb Temperature Range {deltaC}
  15.6,                                   ! Humidity Indicating Conditions at Maximum Dry-Bulb {BasedOnField A3}
  100451,                                 ! Barometric Pressure {Pa}
  4.6,                                    ! Wind Speed {m/s}
  300,                                    ! Wind Direction {deg}
  0,                                      ! Sky Clearness
  0,                                      ! Rain Indicator
  0,                                      ! Snow Indicator
  21,                                     ! Day of Month
  8,                                      ! Month
  SummerDesignDay,                        ! Day Type
  0,                                      ! Daylight Saving Time Indicator
  Dewpoint,                               ! Humidity Indicating Type
  ,                                       ! Humidity Indicating Day Schedule Name
  DefaultMultipliers,                     ! Dry-Bulb Temperature Range Modifier Type
  ,                                       ! Dry-Bulb Temperature Range Modifier Schedule Name
  ASHRAETau,                              ! Solar Model Indicator
  ,                                       ! Beam Solar Day Schedule Name
  ,                                       ! Diffuse Solar Day Schedule Name
  0.371,                                  ! ASHRAE Taub {dimensionless}
  2.414;                                  ! ASHRAE Taud {dimensionless}

OS:ComponentData,
  {23572ba0-a283-498e-b9da-76cc7ba41db7}, ! Handle
  Component Data 1,                       ! Name
  {04671ad1-6fd0-4269-a606-7914bb259368}, ! UUID
  {c247733c-b567-4f18-9a28-7145ea39b0c1}, ! Version UUID
  1366306613,                             ! Creation Timestamp
  1366306613,                             ! Version Timestamp
  {da575a0c-3ce8-4c80-9033-6a888eaeee75}; ! Name of Object 1

