
OS:Version,
  {65bd7b47-a628-4d75-976c-b8652d4805b4}, ! Handle
  0.9.3;                                  ! Version Identifier

OS:SizingPeriod:DesignDay,
  {3e7c349e-f6d5-47eb-9cbd-fabbcbf39456}, ! Handle
  Oakland Co Intl Ann Clg 2% Condns DB=>MWB, ! Name
  28.6,                                   ! Maximum Dry-Bulb Temperature {C}
  10.1,                                   ! Daily Dry-Bulb Temperature Range {deltaC}
  21.2,                                   ! Humidity Indicating Conditions at Maximum Dry-Bulb {BasedOnField A3}
  97703,                                  ! Barometric Pressure {Pa}
  5.2,                                    ! Wind Speed {m/s}
  240,                                    ! Wind Direction {deg}
  0,                                      ! Sky Clearness
  0,                                      ! Rain Indicator
  0,                                      ! Snow Indicator
  21,                                     ! Day of Month
  7,                                      ! Month
  SummerDesignDay,                        ! Day Type
  0,                                      ! Daylight Saving Time Indicator
  Wetbulb,                                ! Humidity Indicating Type
  ,                                       ! Humidity Indicating Day Schedule Name
  DefaultMultipliers,                     ! Dry-Bulb Temperature Range Modifier Type
  ,                                       ! Dry-Bulb Temperature Range Modifier Schedule Name
  ASHRAETau,                              ! Solar Model Indicator
  ,                                       ! Beam Solar Day Schedule Name
  ,                                       ! Diffuse Solar Day Schedule Name
  0.46,                                   ! ASHRAE Taub {dimensionless}
  1.996;                                  ! ASHRAE Taud {dimensionless}

OS:ComponentData,
  {01ddb8b6-f907-4e8a-950c-2f2c1656f9c2}, ! Handle
  Component Data 1,                       ! Name
  {f4ce091d-9d21-4143-a301-60f0b0fd190d}, ! UUID
  {e9bd7001-ad25-4802-abc6-6a30ad96e520}, ! Version UUID
  1366308080,                             ! Creation Timestamp
  1366308080,                             ! Version Timestamp
  {3e7c349e-f6d5-47eb-9cbd-fabbcbf39456}; ! Name of Object 1

