
OS:Version,
  {d09f2039-74c7-4a49-9fa2-19544c0d6818}, ! Handle
  0.9.3;                                  ! Version Identifier

OS:SizingPeriod:DesignDay,
  {848a7812-4a98-40aa-a59d-848ba798d1fa}, ! Handle
  SYRACUSE Ann Clg .4% Condns Enth=>MDB,  ! Name
  29.6,                                   ! Maximum Dry-Bulb Temperature {C}
  10.8,                                   ! Daily Dry-Bulb Temperature Range {deltaC}
  72900,                                  ! Humidity Indicating Conditions at Maximum Dry-Bulb {BasedOnField A3}
  99844,                                  ! Barometric Pressure {Pa}
  4.4,                                    ! Wind Speed {m/s}
  260,                                    ! Wind Direction {deg}
  0,                                      ! Sky Clearness
  0,                                      ! Rain Indicator
  0,                                      ! Snow Indicator
  21,                                     ! Day of Month
  7,                                      ! Month
  SummerDesignDay,                        ! Day Type
  0,                                      ! Daylight Saving Time Indicator
  Enthalpy,                               ! Humidity Indicating Type
  ,                                       ! Humidity Indicating Day Schedule Name
  DefaultMultipliers,                     ! Dry-Bulb Temperature Range Modifier Type
  ,                                       ! Dry-Bulb Temperature Range Modifier Schedule Name
  ASHRAETau,                              ! Solar Model Indicator
  ,                                       ! Beam Solar Day Schedule Name
  ,                                       ! Diffuse Solar Day Schedule Name
  0.47,                                   ! ASHRAE Taub {dimensionless}
  1.975;                                  ! ASHRAE Taud {dimensionless}

OS:ComponentData,
  {75b6cb91-58ad-4602-b135-ac4928cd4f2c}, ! Handle
  Component Data 1,                       ! Name
  {1af25efb-1843-4b67-b218-4977aa048442}, ! UUID
  {91a70ed7-eb51-40ea-9b6c-0455f8584093}, ! Version UUID
  1366309741,                             ! Creation Timestamp
  1366309741,                             ! Version Timestamp
  {848a7812-4a98-40aa-a59d-848ba798d1fa}; ! Name of Object 1

