
OS:Version,
  {29762add-fb72-4b59-b0f6-d984b3c8f438}, ! Handle
  0.9.3;                                  ! Version Identifier

OS:SizingPeriod:DesignDay,
  {7a0bd698-0e2c-4101-8465-20bff398102c}, ! Handle
  Shreveport Regional Arpt Ann Clg .4% Condns WB=>MDB, ! Name
  32.9,                                   ! Maximum Dry-Bulb Temperature {C}
  10.7,                                   ! Daily Dry-Bulb Temperature Range {deltaC}
  26.3,                                   ! Humidity Indicating Conditions at Maximum Dry-Bulb {BasedOnField A3}
  100403,                                 ! Barometric Pressure {Pa}
  3.3,                                    ! Wind Speed {m/s}
  180,                                    ! Wind Direction {deg}
  0,                                      ! Sky Clearness
  0,                                      ! Rain Indicator
  0,                                      ! Snow Indicator
  21,                                     ! Day of Month
  7,                                      ! Month
  SummerDesignDay,                        ! Day Type
  0,                                      ! Daylight Saving Time Indicator
  Wetbulb,                                ! Humidity Indicating Type
  ,                                       ! Humidity Indicating Day Schedule Name
  DefaultMultipliers,                     ! Dry-Bulb Temperature Range Modifier Type
  ,                                       ! Dry-Bulb Temperature Range Modifier Schedule Name
  ASHRAETau,                              ! Solar Model Indicator
  ,                                       ! Beam Solar Day Schedule Name
  ,                                       ! Diffuse Solar Day Schedule Name
  0.489,                                  ! ASHRAE Taub {dimensionless}
  2.014;                                  ! ASHRAE Taud {dimensionless}

OS:ComponentData,
  {5f94efaa-09d4-49a0-93ae-701ab9fb2317}, ! Handle
  Component Data 1,                       ! Name
  {f19f6101-1d10-41da-bf54-e6ba4c461c38}, ! UUID
  {41c5e707-befe-47c6-a05f-2eb0a766b609}, ! Version UUID
  1366307773,                             ! Creation Timestamp
  1366307773,                             ! Version Timestamp
  {7a0bd698-0e2c-4101-8465-20bff398102c}; ! Name of Object 1

