
OS:Version,
  {579dff8a-5826-4da1-9c99-6c9b8e3b72c4}, ! Handle
  0.9.3;                                  ! Version Identifier

OS:SizingPeriod:DesignDay,
  {28fc9d81-cb5b-4d57-8a26-c89b5b169910}, ! Handle
  Portland Ann Htg Wind 99% Condns WS=>MCDB, ! Name
  4.3,                                    ! Maximum Dry-Bulb Temperature {C}
  0,                                      ! Daily Dry-Bulb Temperature Range {deltaC}
  4.3,                                    ! Humidity Indicating Conditions at Maximum Dry-Bulb {BasedOnField A3}
  101181,                                 ! Barometric Pressure {Pa}
  12.5,                                   ! Wind Speed {m/s}
  120,                                    ! Wind Direction {deg}
  0,                                      ! Sky Clearness
  0,                                      ! Rain Indicator
  0,                                      ! Snow Indicator
  21,                                     ! Day of Month
  12,                                     ! Month
  WinterDesignDay,                        ! Day Type
  0,                                      ! Daylight Saving Time Indicator
  Wetbulb,                                ! Humidity Indicating Type
  ,                                       ! Humidity Indicating Day Schedule Name
  DefaultMultipliers,                     ! Dry-Bulb Temperature Range Modifier Type
  ,                                       ! Dry-Bulb Temperature Range Modifier Schedule Name
  ASHRAEClearSky;                         ! Solar Model Indicator

OS:ComponentData,
  {f9f1d80f-9665-4d12-8418-39e718bd7475}, ! Handle
  Component Data 1,                       ! Name
  {4e6bf6ea-7892-49be-8566-62e90dcf164b}, ! UUID
  {96fafd78-b01c-4d41-a882-c6cebdaeaeec}, ! Version UUID
  1366310077,                             ! Creation Timestamp
  1366310077,                             ! Version Timestamp
  {28fc9d81-cb5b-4d57-8a26-c89b5b169910}; ! Name of Object 1

