
OS:Version,
  {9e337e37-8879-4a85-b116-cd0288274f54}, ! Handle
  0.9.3;                                  ! Version Identifier

OS:SizingPeriod:DesignDay,
  {db6734c5-5f5b-4f2f-ac20-5651addf7942}, ! Handle
  Rogers  Awos Ann Clg 1% Condns DP=>MDB, ! Name
  27.7,                                   ! Maximum Dry-Bulb Temperature {C}
  9.9,                                    ! Daily Dry-Bulb Temperature Range {deltaC}
  22.3,                                   ! Humidity Indicating Conditions at Maximum Dry-Bulb {BasedOnField A3}
  96438,                                  ! Barometric Pressure {Pa}
  3.7,                                    ! Wind Speed {m/s}
  240,                                    ! Wind Direction {deg}
  0,                                      ! Sky Clearness
  0,                                      ! Rain Indicator
  0,                                      ! Snow Indicator
  21,                                     ! Day of Month
  7,                                      ! Month
  SummerDesignDay,                        ! Day Type
  0,                                      ! Daylight Saving Time Indicator
  Dewpoint,                               ! Humidity Indicating Type
  ,                                       ! Humidity Indicating Day Schedule Name
  DefaultMultipliers,                     ! Dry-Bulb Temperature Range Modifier Type
  ,                                       ! Dry-Bulb Temperature Range Modifier Schedule Name
  ASHRAETau,                              ! Solar Model Indicator
  ,                                       ! Beam Solar Day Schedule Name
  ,                                       ! Diffuse Solar Day Schedule Name
  0.453,                                  ! ASHRAE Taub {dimensionless}
  2.083;                                  ! ASHRAE Taud {dimensionless}

OS:ComponentData,
  {1aa554ad-390b-4c01-8db4-bfd5e6eb81ff}, ! Handle
  Component Data 1,                       ! Name
  {3076f6ce-79fc-4fb2-a7e6-0d64b4464f18}, ! UUID
  {87caf0bd-d5aa-4a44-92a1-d7500cf2a91b}, ! Version UUID
  1366306244,                             ! Creation Timestamp
  1366306244,                             ! Version Timestamp
  {db6734c5-5f5b-4f2f-ac20-5651addf7942}; ! Name of Object 1

