
OS:Version,
  {948a212e-e256-47d0-acf7-da3f4a851d84}, ! Handle
  0.9.3;                                  ! Version Identifier

OS:SizingPeriod:DesignDay,
  {449425c5-3967-46b9-96e6-a0ee14c4b148}, ! Handle
  Salinas Municipal Ap Ann Hum_n 99.6% Condns DP=>MCDB, ! Name
  8.4,                                    ! Maximum Dry-Bulb Temperature {C}
  0,                                      ! Daily Dry-Bulb Temperature Range {deltaC}
  -5.8,                                   ! Humidity Indicating Conditions at Maximum Dry-Bulb {BasedOnField A3}
  101073,                                 ! Barometric Pressure {Pa}
  2.6,                                    ! Wind Speed {m/s}
  120,                                    ! Wind Direction {deg}
  0,                                      ! Sky Clearness
  0,                                      ! Rain Indicator
  0,                                      ! Snow Indicator
  21,                                     ! Day of Month
  12,                                     ! Month
  WinterDesignDay,                        ! Day Type
  0,                                      ! Daylight Saving Time Indicator
  Dewpoint,                               ! Humidity Indicating Type
  ,                                       ! Humidity Indicating Day Schedule Name
  DefaultMultipliers,                     ! Dry-Bulb Temperature Range Modifier Type
  ,                                       ! Dry-Bulb Temperature Range Modifier Schedule Name
  ASHRAEClearSky;                         ! Solar Model Indicator

OS:ComponentData,
  {fd6490bf-ec77-4958-8cbc-d1c078d695b5}, ! Handle
  Component Data 1,                       ! Name
  {ce53192a-8324-4861-89ae-a121192671b3}, ! UUID
  {d81bf4f6-01a8-45ae-8b1f-e4d1f4b71dbd}, ! Version UUID
  1366306570,                             ! Creation Timestamp
  1366306570,                             ! Version Timestamp
  {449425c5-3967-46b9-96e6-a0ee14c4b148}; ! Name of Object 1

