
OS:Version,
  {577afa7a-c392-4b7c-9ce7-2ff2cab657ec}, ! Handle
  0.9.3;                                  ! Version Identifier

OS:SizingPeriod:DesignDay,
  {cff3edb5-3c1f-40bb-9285-9bf16bfc6d67}, ! Handle
  NEWARK Ann Clg 2% Condns WB=>MDB,       ! Name
  28.6,                                   ! Maximum Dry-Bulb Temperature {C}
  8.9,                                    ! Daily Dry-Bulb Temperature Range {deltaC}
  23.9,                                   ! Humidity Indicating Conditions at Maximum Dry-Bulb {BasedOnField A3}
  101217,                                 ! Barometric Pressure {Pa}
  5.8,                                    ! Wind Speed {m/s}
  250,                                    ! Wind Direction {deg}
  0,                                      ! Sky Clearness
  0,                                      ! Rain Indicator
  0,                                      ! Snow Indicator
  21,                                     ! Day of Month
  7,                                      ! Month
  SummerDesignDay,                        ! Day Type
  0,                                      ! Daylight Saving Time Indicator
  Wetbulb,                                ! Humidity Indicating Type
  ,                                       ! Humidity Indicating Day Schedule Name
  DefaultMultipliers,                     ! Dry-Bulb Temperature Range Modifier Type
  ,                                       ! Dry-Bulb Temperature Range Modifier Schedule Name
  ASHRAETau,                              ! Solar Model Indicator
  ,                                       ! Beam Solar Day Schedule Name
  ,                                       ! Diffuse Solar Day Schedule Name
  0.528,                                  ! ASHRAE Taub {dimensionless}
  1.831;                                  ! ASHRAE Taud {dimensionless}

OS:ComponentData,
  {4612f6e5-5b95-4dd1-bcf0-3c82ca6c8b8e}, ! Handle
  Component Data 1,                       ! Name
  {0b607f9c-6ce8-4078-8737-5c572b04fca0}, ! UUID
  {bebbe12a-55b3-4be3-a8e4-446daa1dd7d5}, ! Version UUID
  1366309327,                             ! Creation Timestamp
  1366309327,                             ! Version Timestamp
  {cff3edb5-3c1f-40bb-9285-9bf16bfc6d67}; ! Name of Object 1

