
OS:Version,
  {9304dbe1-9d5b-4670-b6f7-32e153fec348}, ! Handle
  0.9.3;                                  ! Version Identifier

OS:SizingPeriod:DesignDay,
  {fa2a6f65-eecd-4abe-9b9f-c9a4c4a32d81}, ! Handle
  Red Bluff Ann Clg .4% Condns WB=>MDB,   ! Name
  35.7,                                   ! Maximum Dry-Bulb Temperature {C}
  16.9,                                   ! Daily Dry-Bulb Temperature Range {deltaC}
  22.7,                                   ! Humidity Indicating Conditions at Maximum Dry-Bulb {BasedOnField A3}
  100058,                                 ! Barometric Pressure {Pa}
  3.9,                                    ! Wind Speed {m/s}
  150,                                    ! Wind Direction {deg}
  0,                                      ! Sky Clearness
  0,                                      ! Rain Indicator
  0,                                      ! Snow Indicator
  21,                                     ! Day of Month
  7,                                      ! Month
  SummerDesignDay,                        ! Day Type
  0,                                      ! Daylight Saving Time Indicator
  Wetbulb,                                ! Humidity Indicating Type
  ,                                       ! Humidity Indicating Day Schedule Name
  DefaultMultipliers,                     ! Dry-Bulb Temperature Range Modifier Type
  ,                                       ! Dry-Bulb Temperature Range Modifier Schedule Name
  ASHRAETau,                              ! Solar Model Indicator
  ,                                       ! Beam Solar Day Schedule Name
  ,                                       ! Diffuse Solar Day Schedule Name
  0.364,                                  ! ASHRAE Taub {dimensionless}
  2.504;                                  ! ASHRAE Taud {dimensionless}

OS:ComponentData,
  {4ccf6de9-9599-4af1-a868-5cc7cd49db42}, ! Handle
  Component Data 1,                       ! Name
  {5a894ca2-94f3-47ba-b9d0-ff915c4e7005}, ! UUID
  {c9b93362-2ce4-4334-b832-12f0d755bcc5}, ! Version UUID
  1366306544,                             ! Creation Timestamp
  1366306544,                             ! Version Timestamp
  {fa2a6f65-eecd-4abe-9b9f-c9a4c4a32d81}; ! Name of Object 1

