
OS:Version,
  {d2efb4bd-78b7-46b3-b2ac-2000cb657248}, ! Handle
  0.9.3;                                  ! Version Identifier

OS:SizingPeriod:DesignDay,
  {28a3e725-cdb7-4cd1-be3f-daa15daa0418}, ! Handle
  Pease Intl Tradepor Ann Hum_n 99% Condns DP=>MCDB, ! Name
  -11.9,                                  ! Maximum Dry-Bulb Temperature {C}
  0,                                      ! Daily Dry-Bulb Temperature Range {deltaC}
  -21.8,                                  ! Humidity Indicating Conditions at Maximum Dry-Bulb {BasedOnField A3}
  100953,                                 ! Barometric Pressure {Pa}
  4.3,                                    ! Wind Speed {m/s}
  300,                                    ! Wind Direction {deg}
  0,                                      ! Sky Clearness
  0,                                      ! Rain Indicator
  0,                                      ! Snow Indicator
  21,                                     ! Day of Month
  1,                                      ! Month
  WinterDesignDay,                        ! Day Type
  0,                                      ! Daylight Saving Time Indicator
  Dewpoint,                               ! Humidity Indicating Type
  ,                                       ! Humidity Indicating Day Schedule Name
  DefaultMultipliers,                     ! Dry-Bulb Temperature Range Modifier Type
  ,                                       ! Dry-Bulb Temperature Range Modifier Schedule Name
  ASHRAEClearSky;                         ! Solar Model Indicator

OS:ComponentData,
  {62e22cd2-ab5b-4004-afaa-7bd3f6c23a1f}, ! Handle
  Component Data 1,                       ! Name
  {9a8765d9-8418-4030-9d22-f5e2d102c679}, ! UUID
  {b5cf83f1-d75b-4d8d-9fa5-226d73c7d474}, ! Version UUID
  1366309276,                             ! Creation Timestamp
  1366309276,                             ! Version Timestamp
  {28a3e725-cdb7-4cd1-be3f-daa15daa0418}; ! Name of Object 1

