
OS:Version,
  {d528ac49-e1fb-4d20-a558-106e094a9d8c}, ! Handle
  0.9.3;                                  ! Version Identifier

OS:SizingPeriod:DesignDay,
  {0dabfa58-a9f5-4f34-b4f7-49b52ca41d76}, ! Handle
  Redmond Roberts Field Ann Htg Wind 99% Condns WS=>MCDB, ! Name
  6.6,                                    ! Maximum Dry-Bulb Temperature {C}
  0,                                      ! Daily Dry-Bulb Temperature Range {deltaC}
  6.6,                                    ! Humidity Indicating Conditions at Maximum Dry-Bulb {BasedOnField A3}
  90607,                                  ! Barometric Pressure {Pa}
  9.3,                                    ! Wind Speed {m/s}
  320,                                    ! Wind Direction {deg}
  0,                                      ! Sky Clearness
  0,                                      ! Rain Indicator
  0,                                      ! Snow Indicator
  21,                                     ! Day of Month
  12,                                     ! Month
  WinterDesignDay,                        ! Day Type
  0,                                      ! Daylight Saving Time Indicator
  Wetbulb,                                ! Humidity Indicating Type
  ,                                       ! Humidity Indicating Day Schedule Name
  DefaultMultipliers,                     ! Dry-Bulb Temperature Range Modifier Type
  ,                                       ! Dry-Bulb Temperature Range Modifier Schedule Name
  ASHRAEClearSky;                         ! Solar Model Indicator

OS:ComponentData,
  {b9887ecb-c349-431c-9578-8c7522c0d1c3}, ! Handle
  Component Data 1,                       ! Name
  {6c71abf2-5fc1-4b4f-a689-8267c7869873}, ! UUID
  {cbad6a16-0fcc-462a-a90b-f3e33aaaec9e}, ! Version UUID
  1366310096,                             ! Creation Timestamp
  1366310096,                             ! Version Timestamp
  {0dabfa58-a9f5-4f34-b4f7-49b52ca41d76}; ! Name of Object 1

