
OS:Version,
  {4818798e-6811-4be2-adee-6fea8bf754cb}, ! Handle
  0.9.3;                                  ! Version Identifier

OS:SizingPeriod:DesignDay,
  {400ea150-3eba-48e1-a974-327af6117d90}, ! Handle
  Mosinee Central Wi Ann Htg 99.6% Condns DB, ! Name
  -23.7,                                  ! Maximum Dry-Bulb Temperature {C}
  0,                                      ! Daily Dry-Bulb Temperature Range {deltaC}
  -23.7,                                  ! Humidity Indicating Conditions at Maximum Dry-Bulb {BasedOnField A3}
  96738,                                  ! Barometric Pressure {Pa}
  3.8,                                    ! Wind Speed {m/s}
  280,                                    ! Wind Direction {deg}
  0,                                      ! Sky Clearness
  0,                                      ! Rain Indicator
  0,                                      ! Snow Indicator
  21,                                     ! Day of Month
  1,                                      ! Month
  WinterDesignDay,                        ! Day Type
  0,                                      ! Daylight Saving Time Indicator
  Wetbulb,                                ! Humidity Indicating Type
  ,                                       ! Humidity Indicating Day Schedule Name
  DefaultMultipliers,                     ! Dry-Bulb Temperature Range Modifier Type
  ,                                       ! Dry-Bulb Temperature Range Modifier Schedule Name
  ASHRAEClearSky;                         ! Solar Model Indicator

OS:ComponentData,
  {78a20096-10d8-4d77-bafa-c463fc6a0a0f}, ! Handle
  Component Data 1,                       ! Name
  {cf60d309-7eb1-43e4-9505-c079f58fba7c}, ! UUID
  {83e618b5-3c21-431f-892e-9c2e537cf05d}, ! Version UUID
  1366311568,                             ! Creation Timestamp
  1366311568,                             ! Version Timestamp
  {400ea150-3eba-48e1-a974-327af6117d90}; ! Name of Object 1

