
OS:Version,
  {0532a7e5-f7d0-46bf-bbe2-0596305910fe}, ! Handle
  0.9.3;                                  ! Version Identifier

OS:SizingPeriod:DesignDay,
  {2d790864-2fd9-460c-ae63-9893afabb652}, ! Handle
  Mountain Home Afb Ann Clg .4% Condns Enth=>MDB, ! Name
  32.9,                                   ! Maximum Dry-Bulb Temperature {C}
  18.4,                                   ! Daily Dry-Bulb Temperature Range {deltaC}
  57100,                                  ! Humidity Indicating Conditions at Maximum Dry-Bulb {BasedOnField A3}
  90838,                                  ! Barometric Pressure {Pa}
  3.4,                                    ! Wind Speed {m/s}
  330,                                    ! Wind Direction {deg}
  0,                                      ! Sky Clearness
  0,                                      ! Rain Indicator
  0,                                      ! Snow Indicator
  21,                                     ! Day of Month
  7,                                      ! Month
  SummerDesignDay,                        ! Day Type
  0,                                      ! Daylight Saving Time Indicator
  Enthalpy,                               ! Humidity Indicating Type
  ,                                       ! Humidity Indicating Day Schedule Name
  DefaultMultipliers,                     ! Dry-Bulb Temperature Range Modifier Type
  ,                                       ! Dry-Bulb Temperature Range Modifier Schedule Name
  ASHRAETau,                              ! Solar Model Indicator
  ,                                       ! Beam Solar Day Schedule Name
  ,                                       ! Diffuse Solar Day Schedule Name
  0.425,                                  ! ASHRAE Taub {dimensionless}
  2.01;                                   ! ASHRAE Taud {dimensionless}

