
OS:Version,
  {1729bb8b-2bbf-4546-85bd-38372e1ddd29}, ! Handle
  0.9.3;                                  ! Version Identifier

OS:SizingPeriod:DesignDay,
  {f3ba6133-e120-4d1e-a959-e7583a4e7b39}, ! Handle
  Owatonna  Awos Ann Clg 2% Condns DP=>MDB, ! Name
  25.9,                                   ! Maximum Dry-Bulb Temperature {C}
  10.6,                                   ! Daily Dry-Bulb Temperature Range {deltaC}
  22.4,                                   ! Humidity Indicating Conditions at Maximum Dry-Bulb {BasedOnField A3}
  97190,                                  ! Barometric Pressure {Pa}
  5.6,                                    ! Wind Speed {m/s}
  170,                                    ! Wind Direction {deg}
  0,                                      ! Sky Clearness
  0,                                      ! Rain Indicator
  0,                                      ! Snow Indicator
  21,                                     ! Day of Month
  7,                                      ! Month
  SummerDesignDay,                        ! Day Type
  0,                                      ! Daylight Saving Time Indicator
  Dewpoint,                               ! Humidity Indicating Type
  ,                                       ! Humidity Indicating Day Schedule Name
  DefaultMultipliers,                     ! Dry-Bulb Temperature Range Modifier Type
  ,                                       ! Dry-Bulb Temperature Range Modifier Schedule Name
  ASHRAETau,                              ! Solar Model Indicator
  ,                                       ! Beam Solar Day Schedule Name
  ,                                       ! Diffuse Solar Day Schedule Name
  0.411,                                  ! ASHRAE Taub {dimensionless}
  2.201;                                  ! ASHRAE Taud {dimensionless}

OS:ComponentData,
  {9302e45e-cb1f-4008-8d07-f96f5ccbe54e}, ! Handle
  Component Data 1,                       ! Name
  {a0e09985-3ca3-4a75-97c8-4a5ac323b8ff}, ! UUID
  {971150f6-3d24-43e9-a458-465f24af6dce}, ! Version UUID
  1366308354,                             ! Creation Timestamp
  1366308354,                             ! Version Timestamp
  {f3ba6133-e120-4d1e-a959-e7583a4e7b39}; ! Name of Object 1

