
OS:Version,
  {2239cddc-16a5-442a-80bf-0f05296098d1}, ! Handle
  0.9.3;                                  ! Version Identifier

OS:SizingPeriod:DesignDay,
  {a0e9f742-6ec2-4628-ba20-b773c79ce9e4}, ! Handle
  SPRINGFIELD Ann Clg .4% Condns WB=>MDB, ! Name
  32,                                     ! Maximum Dry-Bulb Temperature {C}
  10.7,                                   ! Daily Dry-Bulb Temperature Range {deltaC}
  26.3,                                   ! Humidity Indicating Conditions at Maximum Dry-Bulb {BasedOnField A3}
  99099,                                  ! Barometric Pressure {Pa}
  4.6,                                    ! Wind Speed {m/s}
  230,                                    ! Wind Direction {deg}
  0,                                      ! Sky Clearness
  0,                                      ! Rain Indicator
  0,                                      ! Snow Indicator
  21,                                     ! Day of Month
  7,                                      ! Month
  SummerDesignDay,                        ! Day Type
  0,                                      ! Daylight Saving Time Indicator
  Wetbulb,                                ! Humidity Indicating Type
  ,                                       ! Humidity Indicating Day Schedule Name
  DefaultMultipliers,                     ! Dry-Bulb Temperature Range Modifier Type
  ,                                       ! Dry-Bulb Temperature Range Modifier Schedule Name
  ASHRAETau,                              ! Solar Model Indicator
  ,                                       ! Beam Solar Day Schedule Name
  ,                                       ! Diffuse Solar Day Schedule Name
  0.463,                                  ! ASHRAE Taub {dimensionless}
  2.022;                                  ! ASHRAE Taud {dimensionless}

OS:ComponentData,
  {7a6cdc89-377a-4e71-a372-8d2582510351}, ! Handle
  Component Data 1,                       ! Name
  {f67af873-4057-46e4-a074-41475804b950}, ! UUID
  {64cad04b-67c9-444f-953f-e53870cfa8c3}, ! Version UUID
  1366307409,                             ! Creation Timestamp
  1366307409,                             ! Version Timestamp
  {a0e9f742-6ec2-4628-ba20-b773c79ce9e4}; ! Name of Object 1

