
OS:Version,
  {4cb9b15b-160b-4138-a0b5-8e14453bee2d}, ! Handle
  0.9.3;                                  ! Version Identifier

OS:SizingPeriod:DesignDay,
  {fc8b9687-62ae-49c1-be8f-36c84898e1b5}, ! Handle
  Moline Quad City Intl Ap Ann Hum_n 99.6% Condns DP=>MCDB, ! Name
  -20.5,                                  ! Maximum Dry-Bulb Temperature {C}
  0,                                      ! Daily Dry-Bulb Temperature Range {deltaC}
  -26.3,                                  ! Humidity Indicating Conditions at Maximum Dry-Bulb {BasedOnField A3}
  99181,                                  ! Barometric Pressure {Pa}
  4.1,                                    ! Wind Speed {m/s}
  280,                                    ! Wind Direction {deg}
  0,                                      ! Sky Clearness
  0,                                      ! Rain Indicator
  0,                                      ! Snow Indicator
  21,                                     ! Day of Month
  1,                                      ! Month
  WinterDesignDay,                        ! Day Type
  0,                                      ! Daylight Saving Time Indicator
  Dewpoint,                               ! Humidity Indicating Type
  ,                                       ! Humidity Indicating Day Schedule Name
  DefaultMultipliers,                     ! Dry-Bulb Temperature Range Modifier Type
  ,                                       ! Dry-Bulb Temperature Range Modifier Schedule Name
  ASHRAEClearSky;                         ! Solar Model Indicator

OS:ComponentData,
  {f2fd75a1-244b-4d30-9f99-046e71e3ae52}, ! Handle
  Component Data 1,                       ! Name
  {b6373d2f-f81c-460c-9677-d8f0516af33f}, ! UUID
  {a7267539-4f62-4e44-93f5-3554077280b5}, ! Version UUID
  1366307368,                             ! Creation Timestamp
  1366307368,                             ! Version Timestamp
  {fc8b9687-62ae-49c1-be8f-36c84898e1b5}; ! Name of Object 1

