
OS:Version,
  {81d08ce3-d30d-44f8-9728-fb87a8690be6}, ! Handle
  0.9.3;                                  ! Version Identifier

OS:SizingPeriod:DesignDay,
  {139cd486-ac71-4420-8b72-d5c932ef4a6a}, ! Handle
  New York J F Kennedy IntL Ar Ann Htg 99% Condns DB, ! Name
  -8.2,                                   ! Maximum Dry-Bulb Temperature {C}
  0,                                      ! Daily Dry-Bulb Temperature Range {deltaC}
  -8.2,                                   ! Humidity Indicating Conditions at Maximum Dry-Bulb {BasedOnField A3}
  101265,                                 ! Barometric Pressure {Pa}
  7.5,                                    ! Wind Speed {m/s}
  320,                                    ! Wind Direction {deg}
  0,                                      ! Sky Clearness
  0,                                      ! Rain Indicator
  0,                                      ! Snow Indicator
  21,                                     ! Day of Month
  1,                                      ! Month
  WinterDesignDay,                        ! Day Type
  0,                                      ! Daylight Saving Time Indicator
  Wetbulb,                                ! Humidity Indicating Type
  ,                                       ! Humidity Indicating Day Schedule Name
  DefaultMultipliers,                     ! Dry-Bulb Temperature Range Modifier Type
  ,                                       ! Dry-Bulb Temperature Range Modifier Schedule Name
  ASHRAEClearSky;                         ! Solar Model Indicator

OS:ComponentData,
  {ede3ec35-7453-435e-8885-56a55a949644}, ! Handle
  Component Data 1,                       ! Name
  {bfc373ae-eee3-42ba-8951-eb9791354cb5}, ! UUID
  {46e072bf-7041-48c3-a1fe-b6ed3fa0a70d}, ! Version UUID
  1366309664,                             ! Creation Timestamp
  1366309664,                             ! Version Timestamp
  {139cd486-ac71-4420-8b72-d5c932ef4a6a}; ! Name of Object 1

