
OS:Version,
  {595e5d9a-4592-4f19-a380-6f4b3d88d405}, ! Handle
  0.9.3;                                  ! Version Identifier

OS:SizingPeriod:DesignDay,
  {279adf3c-22df-49e2-a5c2-538b71a9d414}, ! Handle
  Wilmington Ann Clg 1% Condns WB=>MDB,   ! Name
  29.5,                                   ! Maximum Dry-Bulb Temperature {C}
  9.5,                                    ! Daily Dry-Bulb Temperature Range {deltaC}
  24.9,                                   ! Humidity Indicating Conditions at Maximum Dry-Bulb {BasedOnField A3}
  101037,                                 ! Barometric Pressure {Pa}
  4.6,                                    ! Wind Speed {m/s}
  240,                                    ! Wind Direction {deg}
  0,                                      ! Sky Clearness
  0,                                      ! Rain Indicator
  0,                                      ! Snow Indicator
  21,                                     ! Day of Month
  7,                                      ! Month
  SummerDesignDay,                        ! Day Type
  0,                                      ! Daylight Saving Time Indicator
  Wetbulb,                                ! Humidity Indicating Type
  ,                                       ! Humidity Indicating Day Schedule Name
  DefaultMultipliers,                     ! Dry-Bulb Temperature Range Modifier Type
  ,                                       ! Dry-Bulb Temperature Range Modifier Schedule Name
  ASHRAETau,                              ! Solar Model Indicator
  ,                                       ! Beam Solar Day Schedule Name
  ,                                       ! Diffuse Solar Day Schedule Name
  0.557,                                  ! ASHRAE Taub {dimensionless}
  1.755;                                  ! ASHRAE Taud {dimensionless}

OS:ComponentData,
  {7b694dcb-ba9f-473b-a558-0b671c99a511}, ! Handle
  Component Data 1,                       ! Name
  {7f5cf5d7-e6f8-4928-872a-728d9cbec6c3}, ! UUID
  {329b4a92-9306-4e4d-b9e6-0a73d0f7f55d}, ! Version UUID
  1366306773,                             ! Creation Timestamp
  1366306773,                             ! Version Timestamp
  {279adf3c-22df-49e2-a5c2-538b71a9d414}; ! Name of Object 1

