
OS:Version,
  {003c8a3e-1266-40fa-8614-b43f5a262551}, ! Handle
  0.9.3;                                  ! Version Identifier

OS:SizingPeriod:DesignDay,
  {a28985c1-e838-43fc-8f57-a562605c9c32}, ! Handle
  West Palm Beach Ann Clg 2% Condns DB=>MWB, ! Name
  31.8,                                   ! Maximum Dry-Bulb Temperature {C}
  7.3,                                    ! Daily Dry-Bulb Temperature Range {deltaC}
  25.4,                                   ! Humidity Indicating Conditions at Maximum Dry-Bulb {BasedOnField A3}
  101253,                                 ! Barometric Pressure {Pa}
  5.2,                                    ! Wind Speed {m/s}
  130,                                    ! Wind Direction {deg}
  0,                                      ! Sky Clearness
  0,                                      ! Rain Indicator
  0,                                      ! Snow Indicator
  21,                                     ! Day of Month
  8,                                      ! Month
  SummerDesignDay,                        ! Day Type
  0,                                      ! Daylight Saving Time Indicator
  Wetbulb,                                ! Humidity Indicating Type
  ,                                       ! Humidity Indicating Day Schedule Name
  DefaultMultipliers,                     ! Dry-Bulb Temperature Range Modifier Type
  ,                                       ! Dry-Bulb Temperature Range Modifier Schedule Name
  ASHRAETau,                              ! Solar Model Indicator
  ,                                       ! Beam Solar Day Schedule Name
  ,                                       ! Diffuse Solar Day Schedule Name
  0.497,                                  ! ASHRAE Taub {dimensionless}
  2.018;                                  ! ASHRAE Taud {dimensionless}

OS:ComponentData,
  {4346316a-f82a-4a34-b5e4-8b0ad98ae7e5}, ! Handle
  Component Data 1,                       ! Name
  {6c3460e9-d65f-4934-bdac-9878eb0ac14d}, ! UUID
  {6c8b67c0-33d4-4e59-be6c-92dcbb310aae}, ! Version UUID
  1366306951,                             ! Creation Timestamp
  1366306951,                             ! Version Timestamp
  {a28985c1-e838-43fc-8f57-a562605c9c32}; ! Name of Object 1

