
OS:Version,
  {dc558a54-8c90-4912-af00-97c5b35452ef}, ! Handle
  0.9.3;                                  ! Version Identifier

OS:SizingPeriod:DesignDay,
  {f05e868b-5c78-4d0a-b0c7-861d206503e6}, ! Handle
  Saginaw Tri City Intl Ap Ann Clg 1% Condns WB=>MDB, ! Name
  28.4,                                   ! Maximum Dry-Bulb Temperature {C}
  11.5,                                   ! Daily Dry-Bulb Temperature Range {deltaC}
  23.6,                                   ! Humidity Indicating Conditions at Maximum Dry-Bulb {BasedOnField A3}
  98934,                                  ! Barometric Pressure {Pa}
  5.8,                                    ! Wind Speed {m/s}
  240,                                    ! Wind Direction {deg}
  0,                                      ! Sky Clearness
  0,                                      ! Rain Indicator
  0,                                      ! Snow Indicator
  21,                                     ! Day of Month
  7,                                      ! Month
  SummerDesignDay,                        ! Day Type
  0,                                      ! Daylight Saving Time Indicator
  Wetbulb,                                ! Humidity Indicating Type
  ,                                       ! Humidity Indicating Day Schedule Name
  DefaultMultipliers,                     ! Dry-Bulb Temperature Range Modifier Type
  ,                                       ! Dry-Bulb Temperature Range Modifier Schedule Name
  ASHRAETau,                              ! Solar Model Indicator
  ,                                       ! Beam Solar Day Schedule Name
  ,                                       ! Diffuse Solar Day Schedule Name
  0.435,                                  ! ASHRAE Taub {dimensionless}
  2.102;                                  ! ASHRAE Taud {dimensionless}

OS:ComponentData,
  {86caf49a-8ad4-434d-933f-432f6c9d4dab}, ! Handle
  Component Data 1,                       ! Name
  {54ca5467-df29-4f77-a447-0984e3942785}, ! UUID
  {a22dd949-1acb-455f-be3f-c9babeba6175}, ! Version UUID
  1366308097,                             ! Creation Timestamp
  1366308097,                             ! Version Timestamp
  {f05e868b-5c78-4d0a-b0c7-861d206503e6}; ! Name of Object 1

