
OS:Version,
  {3525e2d6-99fe-4856-a92d-3e79a2f63ed6}, ! Handle
  0.9.3;                                  ! Version Identifier

OS:SizingPeriod:DesignDay,
  {92a01c13-6e34-492f-b228-ef8848b8fb56}, ! Handle
  San Antonio Intl Ap Ann Clg .4% Condns DB=>MWB, ! Name
  37,                                     ! Maximum Dry-Bulb Temperature {C}
  11.2,                                   ! Daily Dry-Bulb Temperature Range {deltaC}
  23.1,                                   ! Humidity Indicating Conditions at Maximum Dry-Bulb {BasedOnField A3}
  98393,                                  ! Barometric Pressure {Pa}
  4.3,                                    ! Wind Speed {m/s}
  160,                                    ! Wind Direction {deg}
  0,                                      ! Sky Clearness
  0,                                      ! Rain Indicator
  0,                                      ! Snow Indicator
  21,                                     ! Day of Month
  8,                                      ! Month
  SummerDesignDay,                        ! Day Type
  0,                                      ! Daylight Saving Time Indicator
  Wetbulb,                                ! Humidity Indicating Type
  ,                                       ! Humidity Indicating Day Schedule Name
  DefaultMultipliers,                     ! Dry-Bulb Temperature Range Modifier Type
  ,                                       ! Dry-Bulb Temperature Range Modifier Schedule Name
  ASHRAETau,                              ! Solar Model Indicator
  ,                                       ! Beam Solar Day Schedule Name
  ,                                       ! Diffuse Solar Day Schedule Name
  0.449,                                  ! ASHRAE Taub {dimensionless}
  2.144;                                  ! ASHRAE Taud {dimensionless}

OS:ComponentData,
  {1ebb3a08-50f2-45ba-9916-92488b63552c}, ! Handle
  Component Data 1,                       ! Name
  {f868e852-de5b-453e-96a9-7545997cf2d8}, ! UUID
  {2f6ed007-8a3b-4f50-a7ef-3bc1c70cf10f}, ! Version UUID
  1366310898,                             ! Creation Timestamp
  1366310898,                             ! Version Timestamp
  {92a01c13-6e34-492f-b228-ef8848b8fb56}; ! Name of Object 1

