
OS:Version,
  {0006f096-c754-4d8f-95ad-69c037cc9307}, ! Handle
  0.9.3;                                  ! Version Identifier

OS:SizingPeriod:DesignDay,
  {bde4d563-9aee-420e-bcea-991a25c8b203}, ! Handle
  Rock Springs Arpt  Green Rive Ann Clg 2% Condns DB=>MWB, ! Name
  27.9,                                   ! Maximum Dry-Bulb Temperature {C}
  15.3,                                   ! Daily Dry-Bulb Temperature Range {deltaC}
  12,                                     ! Humidity Indicating Conditions at Maximum Dry-Bulb {BasedOnField A3}
  89875,                                  ! Barometric Pressure {Pa}
  5.3,                                    ! Wind Speed {m/s}
  260,                                    ! Wind Direction {deg}
  0,                                      ! Sky Clearness
  0,                                      ! Rain Indicator
  0,                                      ! Snow Indicator
  21,                                     ! Day of Month
  7,                                      ! Month
  SummerDesignDay,                        ! Day Type
  0,                                      ! Daylight Saving Time Indicator
  Wetbulb,                                ! Humidity Indicating Type
  ,                                       ! Humidity Indicating Day Schedule Name
  DefaultMultipliers,                     ! Dry-Bulb Temperature Range Modifier Type
  ,                                       ! Dry-Bulb Temperature Range Modifier Schedule Name
  ASHRAETau,                              ! Solar Model Indicator
  ,                                       ! Beam Solar Day Schedule Name
  ,                                       ! Diffuse Solar Day Schedule Name
  0.402,                                  ! ASHRAE Taub {dimensionless}
  1.99;                                   ! ASHRAE Taud {dimensionless}

OS:ComponentData,
  {293c8ad0-db46-46a0-a71b-6a1aebfbdd32}, ! Handle
  Component Data 1,                       ! Name
  {9208d6a3-0855-470d-a8ab-f93987430a5d}, ! UUID
  {6dba356b-c591-493c-a254-bdc6163ed2f9}, ! Version UUID
  1366311738,                             ! Creation Timestamp
  1366311738,                             ! Version Timestamp
  {bde4d563-9aee-420e-bcea-991a25c8b203}; ! Name of Object 1

