
OS:Version,
  {8da740bf-ed53-41ea-a5dd-4bf14448ced1}, ! Handle
  0.9.3;                                  ! Version Identifier

OS:SizingPeriod:DesignDay,
  {42589dc2-9054-4783-b5dd-528956fce427}, ! Handle
  Tyndall Afb Ann Clg 1% Condns WB=>MDB,  ! Name
  30.3,                                   ! Maximum Dry-Bulb Temperature {C}
  7,                                      ! Daily Dry-Bulb Temperature Range {deltaC}
  27.3,                                   ! Humidity Indicating Conditions at Maximum Dry-Bulb {BasedOnField A3}
  101241,                                 ! Barometric Pressure {Pa}
  3.9,                                    ! Wind Speed {m/s}
  240,                                    ! Wind Direction {deg}
  0,                                      ! Sky Clearness
  0,                                      ! Rain Indicator
  0,                                      ! Snow Indicator
  21,                                     ! Day of Month
  7,                                      ! Month
  SummerDesignDay,                        ! Day Type
  0,                                      ! Daylight Saving Time Indicator
  Wetbulb,                                ! Humidity Indicating Type
  ,                                       ! Humidity Indicating Day Schedule Name
  DefaultMultipliers,                     ! Dry-Bulb Temperature Range Modifier Type
  ,                                       ! Dry-Bulb Temperature Range Modifier Schedule Name
  ASHRAETau,                              ! Solar Model Indicator
  ,                                       ! Beam Solar Day Schedule Name
  ,                                       ! Diffuse Solar Day Schedule Name
  0.519,                                  ! ASHRAE Taub {dimensionless}
  1.937;                                  ! ASHRAE Taud {dimensionless}

OS:ComponentData,
  {4e3673e1-825e-4507-a387-484a3e6e05e1}, ! Handle
  Component Data 1,                       ! Name
  {a19c2d24-b2b1-47be-b49a-516b500e541a}, ! UUID
  {1d5637af-4281-440e-844b-76b6a6f1220c}, ! Version UUID
  1366306939,                             ! Creation Timestamp
  1366306939,                             ! Version Timestamp
  {42589dc2-9054-4783-b5dd-528956fce427}; ! Name of Object 1

