
OS:Version,
  {bdc61b85-3374-4a72-afc4-e875b4b20519}, ! Handle
  0.9.3;                                  ! Version Identifier

OS:SizingPeriod:DesignDay,
  {a788e69c-df00-477e-ac82-8a0a17296540}, ! Handle
  Winnemucca Ann Clg 1% Condns DB=>MWB,   ! Name
  35,                                     ! Maximum Dry-Bulb Temperature {C}
  21.5,                                   ! Daily Dry-Bulb Temperature Range {deltaC}
  16.3,                                   ! Humidity Indicating Conditions at Maximum Dry-Bulb {BasedOnField A3}
  86493,                                  ! Barometric Pressure {Pa}
  4.4,                                    ! Wind Speed {m/s}
  240,                                    ! Wind Direction {deg}
  0,                                      ! Sky Clearness
  0,                                      ! Rain Indicator
  0,                                      ! Snow Indicator
  21,                                     ! Day of Month
  7,                                      ! Month
  SummerDesignDay,                        ! Day Type
  0,                                      ! Daylight Saving Time Indicator
  Wetbulb,                                ! Humidity Indicating Type
  ,                                       ! Humidity Indicating Day Schedule Name
  DefaultMultipliers,                     ! Dry-Bulb Temperature Range Modifier Type
  ,                                       ! Dry-Bulb Temperature Range Modifier Schedule Name
  ASHRAETau,                              ! Solar Model Indicator
  ,                                       ! Beam Solar Day Schedule Name
  ,                                       ! Diffuse Solar Day Schedule Name
  0.441,                                  ! ASHRAE Taub {dimensionless}
  1.893;                                  ! ASHRAE Taud {dimensionless}

OS:ComponentData,
  {86cb6b10-44b5-41bc-8433-e67cef32364b}, ! Handle
  Component Data 1,                       ! Name
  {c5ed7776-1ca4-42e7-9b7e-9be828f8fa9a}, ! UUID
  {7cfae53f-5abe-44dc-8c9a-8ef3b8a29f19}, ! Version UUID
  1366309564,                             ! Creation Timestamp
  1366309564,                             ! Version Timestamp
  {a788e69c-df00-477e-ac82-8a0a17296540}; ! Name of Object 1

