
OS:Version,
  {82e709ad-bc2d-4538-a588-7dfc3862965f}, ! Handle
  0.9.3;                                  ! Version Identifier

OS:SizingPeriod:DesignDay,
  {d433486e-6704-4154-94fb-0ec0695421b2}, ! Handle
  Mcgrath Arpt Ann Clg 2% Condns DP=>MDB, ! Name
  16.6,                                   ! Maximum Dry-Bulb Temperature {C}
  9.7,                                    ! Daily Dry-Bulb Temperature Range {deltaC}
  12.8,                                   ! Humidity Indicating Conditions at Maximum Dry-Bulb {BasedOnField A3}
  100070,                                 ! Barometric Pressure {Pa}
  3.2,                                    ! Wind Speed {m/s}
  0,                                      ! Wind Direction {deg}
  0,                                      ! Sky Clearness
  0,                                      ! Rain Indicator
  0,                                      ! Snow Indicator
  21,                                     ! Day of Month
  7,                                      ! Month
  SummerDesignDay,                        ! Day Type
  0,                                      ! Daylight Saving Time Indicator
  Dewpoint,                               ! Humidity Indicating Type
  ,                                       ! Humidity Indicating Day Schedule Name
  DefaultMultipliers,                     ! Dry-Bulb Temperature Range Modifier Type
  ,                                       ! Dry-Bulb Temperature Range Modifier Schedule Name
  ASHRAETau,                              ! Solar Model Indicator
  ,                                       ! Beam Solar Day Schedule Name
  ,                                       ! Diffuse Solar Day Schedule Name
  0.388,                                  ! ASHRAE Taub {dimensionless}
  2.208;                                  ! ASHRAE Taud {dimensionless}

OS:ComponentData,
  {5d53465d-ebc9-4c2c-95de-d395e7849f5e}, ! Handle
  Component Data 1,                       ! Name
  {4735fe36-436f-41cc-97a1-94e7303f9d12}, ! UUID
  {37c28d60-eeb9-4352-8f28-f0f876547c3c}, ! Version UUID
  1366305420,                             ! Creation Timestamp
  1366305420,                             ! Version Timestamp
  {d433486e-6704-4154-94fb-0ec0695421b2}; ! Name of Object 1

