
OS:Version,
  {b7398663-1ab3-420c-a589-d28988fc7e54}, ! Handle
  0.9.3;                                  ! Version Identifier

OS:SizingPeriod:DesignDay,
  {be95407c-95ed-42fa-98b0-8504058a21b6}, ! Handle
  Tacoma Narrows Ann Htg 99.6% Condns DB, ! Name
  -1.4,                                   ! Maximum Dry-Bulb Temperature {C}
  0,                                      ! Daily Dry-Bulb Temperature Range {deltaC}
  -1.4,                                   ! Humidity Indicating Conditions at Maximum Dry-Bulb {BasedOnField A3}
  100237,                                 ! Barometric Pressure {Pa}
  2.1,                                    ! Wind Speed {m/s}
  20,                                     ! Wind Direction {deg}
  0,                                      ! Sky Clearness
  0,                                      ! Rain Indicator
  0,                                      ! Snow Indicator
  21,                                     ! Day of Month
  12,                                     ! Month
  WinterDesignDay,                        ! Day Type
  0,                                      ! Daylight Saving Time Indicator
  Wetbulb,                                ! Humidity Indicating Type
  ,                                       ! Humidity Indicating Day Schedule Name
  DefaultMultipliers,                     ! Dry-Bulb Temperature Range Modifier Type
  ,                                       ! Dry-Bulb Temperature Range Modifier Schedule Name
  ASHRAEClearSky;                         ! Solar Model Indicator

OS:ComponentData,
  {0bff97b0-cdbe-48d0-b575-91a5b5901709}, ! Handle
  Component Data 1,                       ! Name
  {8e10b7db-d52a-4c0b-9529-8f6d1059f665}, ! UUID
  {7960ea12-6912-49ec-bc7e-1fc680001ec8}, ! Version UUID
  1366311410,                             ! Creation Timestamp
  1366311410,                             ! Version Timestamp
  {be95407c-95ed-42fa-98b0-8504058a21b6}; ! Name of Object 1

