
OS:Version,
  {ff8915d4-4ef8-4830-ab17-0bb52ed4ed52}, ! Handle
  0.9.3;                                  ! Version Identifier

OS:SizingPeriod:DesignDay,
  {041c50d0-6609-4630-b576-67fe0af8d2e8}, ! Handle
  Midland/Odessa Ann Clg .4% Condns Enth=>MDB, ! Name
  30.5,                                   ! Maximum Dry-Bulb Temperature {C}
  13.1,                                   ! Daily Dry-Bulb Temperature Range {deltaC}
  72000,                                  ! Humidity Indicating Conditions at Maximum Dry-Bulb {BasedOnField A3}
  91279,                                  ! Barometric Pressure {Pa}
  5.7,                                    ! Wind Speed {m/s}
  150,                                    ! Wind Direction {deg}
  0,                                      ! Sky Clearness
  0,                                      ! Rain Indicator
  0,                                      ! Snow Indicator
  21,                                     ! Day of Month
  7,                                      ! Month
  SummerDesignDay,                        ! Day Type
  0,                                      ! Daylight Saving Time Indicator
  Enthalpy,                               ! Humidity Indicating Type
  ,                                       ! Humidity Indicating Day Schedule Name
  DefaultMultipliers,                     ! Dry-Bulb Temperature Range Modifier Type
  ,                                       ! Dry-Bulb Temperature Range Modifier Schedule Name
  ASHRAETau,                              ! Solar Model Indicator
  ,                                       ! Beam Solar Day Schedule Name
  ,                                       ! Diffuse Solar Day Schedule Name
  0.443,                                  ! ASHRAE Taub {dimensionless}
  2.032;                                  ! ASHRAE Taud {dimensionless}

OS:ComponentData,
  {42fae8ef-8d4c-4b61-b9a6-a5de4d2ca7f9}, ! Handle
  Component Data 1,                       ! Name
  {dde24fc6-f99f-45da-9e08-355282a8c7ae}, ! UUID
  {573edfcf-3ee4-4c3e-bbae-c87f94ae4621}, ! Version UUID
  1366310832,                             ! Creation Timestamp
  1366310832,                             ! Version Timestamp
  {041c50d0-6609-4630-b576-67fe0af8d2e8}; ! Name of Object 1

