
OS:Version,
  {783388b5-eab7-4884-bbfe-b1f633bed0c3}, ! Handle
  0.9.3;                                  ! Version Identifier

OS:SizingPeriod:DesignDay,
  {c03705c3-5601-43fa-9b29-7f201b1f4f13}, ! Handle
  Patuxent River NAS Ann Clg 1% Condns Enth=>MDB, ! Name
  30.3,                                   ! Maximum Dry-Bulb Temperature {C}
  8.6,                                    ! Daily Dry-Bulb Temperature Range {deltaC}
  77600,                                  ! Humidity Indicating Conditions at Maximum Dry-Bulb {BasedOnField A3}
  101157,                                 ! Barometric Pressure {Pa}
  3.9,                                    ! Wind Speed {m/s}
  250,                                    ! Wind Direction {deg}
  0,                                      ! Sky Clearness
  0,                                      ! Rain Indicator
  0,                                      ! Snow Indicator
  21,                                     ! Day of Month
  7,                                      ! Month
  SummerDesignDay,                        ! Day Type
  0,                                      ! Daylight Saving Time Indicator
  Enthalpy,                               ! Humidity Indicating Type
  ,                                       ! Humidity Indicating Day Schedule Name
  DefaultMultipliers,                     ! Dry-Bulb Temperature Range Modifier Type
  ,                                       ! Dry-Bulb Temperature Range Modifier Schedule Name
  ASHRAETau,                              ! Solar Model Indicator
  ,                                       ! Beam Solar Day Schedule Name
  ,                                       ! Diffuse Solar Day Schedule Name
  0.592,                                  ! ASHRAE Taub {dimensionless}
  1.683;                                  ! ASHRAE Taud {dimensionless}

OS:ComponentData,
  {8ec769e2-ff8b-4b84-b4ef-25edc7d8f500}, ! Handle
  Component Data 1,                       ! Name
  {70104251-8034-405b-9e9c-f6d808b3bfaa}, ! UUID
  {031a740c-4f39-4024-a24f-b01a14544b9d}, ! Version UUID
  1366307855,                             ! Creation Timestamp
  1366307855,                             ! Version Timestamp
  {c03705c3-5601-43fa-9b29-7f201b1f4f13}; ! Name of Object 1

