
OS:Version,
  {4d0daa1e-e056-4d89-9381-c5152ecc47d3}, ! Handle
  0.9.3;                                  ! Version Identifier

OS:SizingPeriod:DesignDay,
  {1e4f841a-0c87-4692-a76a-b0cf17c5daa2}, ! Handle
  Salmon Lemhi  Awos Ann Htg 99.6% Condns DB, ! Name
  -20.8,                                  ! Maximum Dry-Bulb Temperature {C}
  0,                                      ! Daily Dry-Bulb Temperature Range {deltaC}
  -20.8,                                  ! Humidity Indicating Conditions at Maximum Dry-Bulb {BasedOnField A3}
  87363,                                  ! Barometric Pressure {Pa}
  0.3,                                    ! Wind Speed {m/s}
  150,                                    ! Wind Direction {deg}
  0,                                      ! Sky Clearness
  0,                                      ! Rain Indicator
  0,                                      ! Snow Indicator
  21,                                     ! Day of Month
  1,                                      ! Month
  WinterDesignDay,                        ! Day Type
  0,                                      ! Daylight Saving Time Indicator
  Wetbulb,                                ! Humidity Indicating Type
  ,                                       ! Humidity Indicating Day Schedule Name
  DefaultMultipliers,                     ! Dry-Bulb Temperature Range Modifier Type
  ,                                       ! Dry-Bulb Temperature Range Modifier Schedule Name
  ASHRAEClearSky;                         ! Solar Model Indicator

OS:ComponentData,
  {78f01f6e-df16-4fef-9b1c-a6a44b0ca54e}, ! Handle
  Component Data 1,                       ! Name
  {9feaed17-848d-4380-b856-1a41bd67eab7}, ! UUID
  {396fbcba-f4c5-4d2a-ab83-261c34844286}, ! Version UUID
  1366307310,                             ! Creation Timestamp
  1366307310,                             ! Version Timestamp
  {1e4f841a-0c87-4692-a76a-b0cf17c5daa2}; ! Name of Object 1

