
OS:Version,
  {f8c1ffaf-9ba3-4451-8dc4-e7e0e85eab84}, ! Handle
  0.9.3;                                  ! Version Identifier

OS:SizingPeriod:DesignDay,
  {beeb5b58-9fb0-4dec-a51e-f7b26d09e44f}, ! Handle
  Sacramento Executive Arpt Ann Clg 1% Condns DB=>MWB, ! Name
  36.2,                                   ! Maximum Dry-Bulb Temperature {C}
  18.1,                                   ! Daily Dry-Bulb Temperature Range {deltaC}
  20.5,                                   ! Humidity Indicating Conditions at Maximum Dry-Bulb {BasedOnField A3}
  101265,                                 ! Barometric Pressure {Pa}
  3.4,                                    ! Wind Speed {m/s}
  220,                                    ! Wind Direction {deg}
  0,                                      ! Sky Clearness
  0,                                      ! Rain Indicator
  0,                                      ! Snow Indicator
  21,                                     ! Day of Month
  7,                                      ! Month
  SummerDesignDay,                        ! Day Type
  0,                                      ! Daylight Saving Time Indicator
  Wetbulb,                                ! Humidity Indicating Type
  ,                                       ! Humidity Indicating Day Schedule Name
  DefaultMultipliers,                     ! Dry-Bulb Temperature Range Modifier Type
  ,                                       ! Dry-Bulb Temperature Range Modifier Schedule Name
  ASHRAETau,                              ! Solar Model Indicator
  ,                                       ! Beam Solar Day Schedule Name
  ,                                       ! Diffuse Solar Day Schedule Name
  0.382,                                  ! ASHRAE Taub {dimensionless}
  2.325;                                  ! ASHRAE Taud {dimensionless}

OS:ComponentData,
  {eade0bbf-8896-40ad-93e2-be90837c21e3}, ! Handle
  Component Data 1,                       ! Name
  {bf6fefa5-c3ae-4797-ab5f-32c258ac39ca}, ! UUID
  {91b2cb1e-64f0-4ba5-8357-51ff4500844d}, ! Version UUID
  1366306563,                             ! Creation Timestamp
  1366306563,                             ! Version Timestamp
  {beeb5b58-9fb0-4dec-a51e-f7b26d09e44f}; ! Name of Object 1

