
OS:Version,
  {97c9bb87-0ca2-410b-b2ed-e67e8518364c}, ! Handle
  0.9.3;                                  ! Version Identifier

OS:SizingPeriod:DesignDay,
  {16ff555c-c345-473e-9f7d-bc5e647c89db}, ! Handle
  Wausau Municipal Arpt Ann Clg 1% Condns WB=>MDB, ! Name
  27.4,                                   ! Maximum Dry-Bulb Temperature {C}
  11,                                     ! Daily Dry-Bulb Temperature Range {deltaC}
  22.6,                                   ! Humidity Indicating Conditions at Maximum Dry-Bulb {BasedOnField A3}
  97005,                                  ! Barometric Pressure {Pa}
  4.7,                                    ! Wind Speed {m/s}
  200,                                    ! Wind Direction {deg}
  0,                                      ! Sky Clearness
  0,                                      ! Rain Indicator
  0,                                      ! Snow Indicator
  21,                                     ! Day of Month
  7,                                      ! Month
  SummerDesignDay,                        ! Day Type
  0,                                      ! Daylight Saving Time Indicator
  Wetbulb,                                ! Humidity Indicating Type
  ,                                       ! Humidity Indicating Day Schedule Name
  DefaultMultipliers,                     ! Dry-Bulb Temperature Range Modifier Type
  ,                                       ! Dry-Bulb Temperature Range Modifier Schedule Name
  ASHRAETau,                              ! Solar Model Indicator
  ,                                       ! Beam Solar Day Schedule Name
  ,                                       ! Diffuse Solar Day Schedule Name
  0.417,                                  ! ASHRAE Taub {dimensionless}
  2.148;                                  ! ASHRAE Taud {dimensionless}

OS:ComponentData,
  {63eca7a6-b531-4c47-8625-5b89fd80ceb8}, ! Handle
  Component Data 1,                       ! Name
  {6fc90a49-7e89-4c3a-9e75-fd8294e37ba9}, ! UUID
  {0ede4867-7f44-4c7f-ade5-e3923a72fd17}, ! Version UUID
  1366311598,                             ! Creation Timestamp
  1366311598,                             ! Version Timestamp
  {16ff555c-c345-473e-9f7d-bc5e647c89db}; ! Name of Object 1

