
OS:Version,
  {903efd32-d623-40b9-b87b-0c3fde12e15f}, ! Handle
  0.9.3;                                  ! Version Identifier

OS:SizingPeriod:DesignDay,
  {a31ad620-e5d6-4d96-8edc-0d2c6a4ef49b}, ! Handle
  Mount Clemens Selfridge Fld Ann Clg 1% Condns Enth=>MDB, ! Name
  28.6,                                   ! Maximum Dry-Bulb Temperature {C}
  11,                                     ! Daily Dry-Bulb Temperature Range {deltaC}
  72200,                                  ! Humidity Indicating Conditions at Maximum Dry-Bulb {BasedOnField A3}
  99217,                                  ! Barometric Pressure {Pa}
  4.4,                                    ! Wind Speed {m/s}
  160,                                    ! Wind Direction {deg}
  0,                                      ! Sky Clearness
  0,                                      ! Rain Indicator
  0,                                      ! Snow Indicator
  21,                                     ! Day of Month
  7,                                      ! Month
  SummerDesignDay,                        ! Day Type
  0,                                      ! Daylight Saving Time Indicator
  Enthalpy,                               ! Humidity Indicating Type
  ,                                       ! Humidity Indicating Day Schedule Name
  DefaultMultipliers,                     ! Dry-Bulb Temperature Range Modifier Type
  ,                                       ! Dry-Bulb Temperature Range Modifier Schedule Name
  ASHRAETau,                              ! Solar Model Indicator
  ,                                       ! Beam Solar Day Schedule Name
  ,                                       ! Diffuse Solar Day Schedule Name
  0.482,                                  ! ASHRAE Taub {dimensionless}
  1.934;                                  ! ASHRAE Taud {dimensionless}

OS:ComponentData,
  {7ada6c1d-21d3-4f2d-9fbd-27011f621c3f}, ! Handle
  Component Data 1,                       ! Name
  {eb6c24a1-dc7c-4765-8715-59e6e1e5716b}, ! UUID
  {3b54e2b4-eb6e-4dfb-bf63-20b28fc39d70}, ! Version UUID
  1366308069,                             ! Creation Timestamp
  1366308069,                             ! Version Timestamp
  {a31ad620-e5d6-4d96-8edc-0d2c6a4ef49b}; ! Name of Object 1

