
OS:Version,
  {98bd806c-15cf-4fec-8781-81728529dbc0}, ! Handle
  0.9.3;                                  ! Version Identifier

OS:SizingPeriod:DesignDay,
  {6f8bc29d-67f4-4223-8100-95475cf506cd}, ! Handle
  SAULT_STE. Ann Clg 1% Condns WB=>MDB,   ! Name
  25.1,                                   ! Maximum Dry-Bulb Temperature {C}
  11.7,                                   ! Daily Dry-Bulb Temperature Range {deltaC}
  21.3,                                   ! Humidity Indicating Conditions at Maximum Dry-Bulb {BasedOnField A3}
  98698,                                  ! Barometric Pressure {Pa}
  4.2,                                    ! Wind Speed {m/s}
  220,                                    ! Wind Direction {deg}
  0,                                      ! Sky Clearness
  0,                                      ! Rain Indicator
  0,                                      ! Snow Indicator
  21,                                     ! Day of Month
  7,                                      ! Month
  SummerDesignDay,                        ! Day Type
  0,                                      ! Daylight Saving Time Indicator
  Wetbulb,                                ! Humidity Indicating Type
  ,                                       ! Humidity Indicating Day Schedule Name
  DefaultMultipliers,                     ! Dry-Bulb Temperature Range Modifier Type
  ,                                       ! Dry-Bulb Temperature Range Modifier Schedule Name
  ASHRAETau,                              ! Solar Model Indicator
  ,                                       ! Beam Solar Day Schedule Name
  ,                                       ! Diffuse Solar Day Schedule Name
  0.412,                                  ! ASHRAE Taub {dimensionless}
  2.194;                                  ! ASHRAE Taud {dimensionless}

OS:ComponentData,
  {401083e8-6cc6-4439-ac26-f976f06aef62}, ! Handle
  Component Data 1,                       ! Name
  {abbcc0ce-25d8-4624-becc-7f4d353c21c6}, ! UUID
  {57abfdb1-ace9-4695-9597-1b61ec908181}, ! Version UUID
  1366308110,                             ! Creation Timestamp
  1366308110,                             ! Version Timestamp
  {6f8bc29d-67f4-4223-8100-95475cf506cd}; ! Name of Object 1

