
OS:Version,
  {22a73652-f3d3-43a2-87b0-a018c2fc2aec}, ! Handle
  0.9.3;                                  ! Version Identifier

OS:SizingPeriod:DesignDay,
  {93aeca06-73a1-47c2-a026-148bc4700f68}, ! Handle
  Mc Gregor  Awos Ann Clg .4% Condns DB=>MWB, ! Name
  37.7,                                   ! Maximum Dry-Bulb Temperature {C}
  12.2,                                   ! Daily Dry-Bulb Temperature Range {deltaC}
  23.8,                                   ! Humidity Indicating Conditions at Maximum Dry-Bulb {BasedOnField A3}
  99181,                                  ! Barometric Pressure {Pa}
  4.4,                                    ! Wind Speed {m/s}
  170,                                    ! Wind Direction {deg}
  0,                                      ! Sky Clearness
  0,                                      ! Rain Indicator
  0,                                      ! Snow Indicator
  21,                                     ! Day of Month
  7,                                      ! Month
  SummerDesignDay,                        ! Day Type
  0,                                      ! Daylight Saving Time Indicator
  Wetbulb,                                ! Humidity Indicating Type
  ,                                       ! Humidity Indicating Day Schedule Name
  DefaultMultipliers,                     ! Dry-Bulb Temperature Range Modifier Type
  ,                                       ! Dry-Bulb Temperature Range Modifier Schedule Name
  ASHRAETau,                              ! Solar Model Indicator
  ,                                       ! Beam Solar Day Schedule Name
  ,                                       ! Diffuse Solar Day Schedule Name
  0.456,                                  ! ASHRAE Taub {dimensionless}
  2.109;                                  ! ASHRAE Taud {dimensionless}

OS:ComponentData,
  {88e5c2ef-709d-4e5b-a989-88fa0ad25c2f}, ! Handle
  Component Data 1,                       ! Name
  {68a68401-6601-464b-bf88-a610c056648a}, ! UUID
  {3fdc8ad8-7a78-4b0b-96a0-b6472ad949d3}, ! Version UUID
  1366310823,                             ! Creation Timestamp
  1366310823,                             ! Version Timestamp
  {93aeca06-73a1-47c2-a026-148bc4700f68}; ! Name of Object 1

