
OS:Version,
  {65a21fa2-63e7-4d5d-a045-4ed357c4a493}, ! Handle
  0.9.3;                                  ! Version Identifier

OS:SizingPeriod:DesignDay,
  {19d71a0c-b6a9-4621-b6dc-b5e4992486ba}, ! Handle
  Miles City Ann Htg 99% Condns DB,       ! Name
  -24.2,                                  ! Maximum Dry-Bulb Temperature {C}
  0,                                      ! Daily Dry-Bulb Temperature Range {deltaC}
  -24.2,                                  ! Humidity Indicating Conditions at Maximum Dry-Bulb {BasedOnField A3}
  92065,                                  ! Barometric Pressure {Pa}
  3.2,                                    ! Wind Speed {m/s}
  310,                                    ! Wind Direction {deg}
  0,                                      ! Sky Clearness
  0,                                      ! Rain Indicator
  0,                                      ! Snow Indicator
  21,                                     ! Day of Month
  1,                                      ! Month
  WinterDesignDay,                        ! Day Type
  0,                                      ! Daylight Saving Time Indicator
  Wetbulb,                                ! Humidity Indicating Type
  ,                                       ! Humidity Indicating Day Schedule Name
  DefaultMultipliers,                     ! Dry-Bulb Temperature Range Modifier Type
  ,                                       ! Dry-Bulb Temperature Range Modifier Schedule Name
  ASHRAEClearSky;                         ! Solar Model Indicator

OS:ComponentData,
  {104397fd-05d4-41c9-81a6-9f1d125b470e}, ! Handle
  Component Data 1,                       ! Name
  {8d308ebe-9f3b-4e63-9a1a-47b09c1a5185}, ! UUID
  {363d40b2-02af-4ba0-a352-0db09435de7d}, ! Version UUID
  1366308831,                             ! Creation Timestamp
  1366308831,                             ! Version Timestamp
  {19d71a0c-b6a9-4621-b6dc-b5e4992486ba}; ! Name of Object 1

