
OS:Version,
  {811a4bd8-ead1-4b26-8e68-37550b8f8ac8}, ! Handle
  0.9.3;                                  ! Version Identifier

OS:SizingPeriod:DesignDay,
  {7be7ec6e-4720-4fc2-831e-2634770404c2}, ! Handle
  Pierre Ann Clg 2% Condns DP=>MDB,       ! Name
  25.9,                                   ! Maximum Dry-Bulb Temperature {C}
  14.3,                                   ! Daily Dry-Bulb Temperature Range {deltaC}
  19.6,                                   ! Humidity Indicating Conditions at Maximum Dry-Bulb {BasedOnField A3}
  95106,                                  ! Barometric Pressure {Pa}
  6.2,                                    ! Wind Speed {m/s}
  170,                                    ! Wind Direction {deg}
  0,                                      ! Sky Clearness
  0,                                      ! Rain Indicator
  0,                                      ! Snow Indicator
  21,                                     ! Day of Month
  7,                                      ! Month
  SummerDesignDay,                        ! Day Type
  0,                                      ! Daylight Saving Time Indicator
  Dewpoint,                               ! Humidity Indicating Type
  ,                                       ! Humidity Indicating Day Schedule Name
  DefaultMultipliers,                     ! Dry-Bulb Temperature Range Modifier Type
  ,                                       ! Dry-Bulb Temperature Range Modifier Schedule Name
  ASHRAETau,                              ! Solar Model Indicator
  ,                                       ! Beam Solar Day Schedule Name
  ,                                       ! Diffuse Solar Day Schedule Name
  0.427,                                  ! ASHRAE Taub {dimensionless}
  2.103;                                  ! ASHRAE Taud {dimensionless}

OS:ComponentData,
  {cd24049c-c7c1-4e89-968d-613e55b0432a}, ! Handle
  Component Data 1,                       ! Name
  {13660815-a8d1-4bf9-9ae7-9e40d9583f30}, ! UUID
  {c6e47b9a-8ff5-4bb7-bb63-117292a047c5}, ! Version UUID
  1366310432,                             ! Creation Timestamp
  1366310432,                             ! Version Timestamp
  {7be7ec6e-4720-4fc2-831e-2634770404c2}; ! Name of Object 1

