
OS:Version,
  {b3aee415-df6d-4a9f-a3b6-12ac2ae8f6b1}, ! Handle
  0.9.3;                                  ! Version Identifier

OS:SizingPeriod:DesignDay,
  {acd499c7-5f8b-4545-892d-66eac56dd57c}, ! Handle
  Washington Ann Clg 2% Condns DP=>MDB,   ! Name
  28.8,                                   ! Maximum Dry-Bulb Temperature {C}
  10.8,                                   ! Daily Dry-Bulb Temperature Range {deltaC}
  24.1,                                   ! Humidity Indicating Conditions at Maximum Dry-Bulb {BasedOnField A3}
  98592,                                  ! Barometric Pressure {Pa}
  4.4,                                    ! Wind Speed {m/s}
  200,                                    ! Wind Direction {deg}
  0,                                      ! Sky Clearness
  0,                                      ! Rain Indicator
  0,                                      ! Snow Indicator
  21,                                     ! Day of Month
  7,                                      ! Month
  SummerDesignDay,                        ! Day Type
  0,                                      ! Daylight Saving Time Indicator
  Dewpoint,                               ! Humidity Indicating Type
  ,                                       ! Humidity Indicating Day Schedule Name
  DefaultMultipliers,                     ! Dry-Bulb Temperature Range Modifier Type
  ,                                       ! Dry-Bulb Temperature Range Modifier Schedule Name
  ASHRAETau,                              ! Solar Model Indicator
  ,                                       ! Beam Solar Day Schedule Name
  ,                                       ! Diffuse Solar Day Schedule Name
  0.446,                                  ! ASHRAE Taub {dimensionless}
  2.081;                                  ! ASHRAE Taud {dimensionless}

OS:ComponentData,
  {23293e19-7907-45d8-b282-c31c58897b8c}, ! Handle
  Component Data 1,                       ! Name
  {2bd9f9a5-a3e3-4898-bc9c-7011808693f3}, ! UUID
  {65199b04-556c-4271-93a6-8ff25c81f7b6}, ! Version UUID
  1366307249,                             ! Creation Timestamp
  1366307249,                             ! Version Timestamp
  {acd499c7-5f8b-4545-892d-66eac56dd57c}; ! Name of Object 1

