
OS:Version,
  {3826ba31-4b64-4959-859c-f6d5709ec660}, ! Handle
  0.9.3;                                  ! Version Identifier

OS:SizingPeriod:DesignDay,
  {e4486a81-29ae-4f4d-918a-9f84f0dcbf5b}, ! Handle
  Rockland Knox Awos Ann Clg 2% Condns DP=>MDB, ! Name
  21.1,                                   ! Maximum Dry-Bulb Temperature {C}
  8.9,                                    ! Daily Dry-Bulb Temperature Range {deltaC}
  17.7,                                   ! Humidity Indicating Conditions at Maximum Dry-Bulb {BasedOnField A3}
  101121,                                 ! Barometric Pressure {Pa}
  4,                                      ! Wind Speed {m/s}
  280,                                    ! Wind Direction {deg}
  0,                                      ! Sky Clearness
  0,                                      ! Rain Indicator
  0,                                      ! Snow Indicator
  21,                                     ! Day of Month
  7,                                      ! Month
  SummerDesignDay,                        ! Day Type
  0,                                      ! Daylight Saving Time Indicator
  Dewpoint,                               ! Humidity Indicating Type
  ,                                       ! Humidity Indicating Day Schedule Name
  DefaultMultipliers,                     ! Dry-Bulb Temperature Range Modifier Type
  ,                                       ! Dry-Bulb Temperature Range Modifier Schedule Name
  ASHRAETau,                              ! Solar Model Indicator
  ,                                       ! Beam Solar Day Schedule Name
  ,                                       ! Diffuse Solar Day Schedule Name
  0.475,                                  ! ASHRAE Taub {dimensionless}
  1.988;                                  ! ASHRAE Taud {dimensionless}

OS:ComponentData,
  {72795641-5080-47de-b72b-968f02685eb0}, ! Handle
  Component Data 1,                       ! Name
  {99efaddf-f950-4dbd-b297-6488aa78a5a3}, ! UUID
  {116ec217-62d7-4175-899e-10025c4acc42}, ! Version UUID
  1366307923,                             ! Creation Timestamp
  1366307923,                             ! Version Timestamp
  {e4486a81-29ae-4f4d-918a-9f84f0dcbf5b}; ! Name of Object 1

