
OS:Version,
  {3c75602e-e08e-4c1b-850c-6f6d14791d84}, ! Handle
  0.9.3;                                  ! Version Identifier

OS:SizingPeriod:DesignDay,
  {1f85a323-3343-406c-be8b-b75fe8c69241}, ! Handle
  WILKES-BARRE Ann Clg 2% Condns DP=>MDB, ! Name
  24.5,                                   ! Maximum Dry-Bulb Temperature {C}
  10.8,                                   ! Daily Dry-Bulb Temperature Range {deltaC}
  20.7,                                   ! Humidity Indicating Conditions at Maximum Dry-Bulb {BasedOnField A3}
  97901,                                  ! Barometric Pressure {Pa}
  4.5,                                    ! Wind Speed {m/s}
  240,                                    ! Wind Direction {deg}
  0,                                      ! Sky Clearness
  0,                                      ! Rain Indicator
  0,                                      ! Snow Indicator
  21,                                     ! Day of Month
  7,                                      ! Month
  SummerDesignDay,                        ! Day Type
  0,                                      ! Daylight Saving Time Indicator
  Dewpoint,                               ! Humidity Indicating Type
  ,                                       ! Humidity Indicating Day Schedule Name
  DefaultMultipliers,                     ! Dry-Bulb Temperature Range Modifier Type
  ,                                       ! Dry-Bulb Temperature Range Modifier Schedule Name
  ASHRAETau,                              ! Solar Model Indicator
  ,                                       ! Beam Solar Day Schedule Name
  ,                                       ! Diffuse Solar Day Schedule Name
  0.477,                                  ! ASHRAE Taub {dimensionless}
  1.945;                                  ! ASHRAE Taud {dimensionless}

OS:ComponentData,
  {a529a5bb-4093-47d4-8282-12535b96f613}, ! Handle
  Component Data 1,                       ! Name
  {87a6dd2c-6704-4d8c-aa19-b12503441386}, ! UUID
  {fd6dbea8-deed-45cd-939e-727cc5d1691b}, ! Version UUID
  1366310271,                             ! Creation Timestamp
  1366310271,                             ! Version Timestamp
  {1f85a323-3343-406c-be8b-b75fe8c69241}; ! Name of Object 1

