
OS:Version,
  {b001dd46-67de-4bff-af21-a125f3a75817}, ! Handle
  0.9.3;                                  ! Version Identifier

OS:SizingPeriod:DesignDay,
  {8aaf76d0-f5b6-40d2-a91f-82a835ca6858}, ! Handle
  Mercury Desert Rock Ap  Surfr Ann Clg 1% Condns WB=>MDB, ! Name
  33.4,                                   ! Maximum Dry-Bulb Temperature {C}
  14.8,                                   ! Daily Dry-Bulb Temperature Range {deltaC}
  19.9,                                   ! Humidity Indicating Conditions at Maximum Dry-Bulb {BasedOnField A3}
  90585,                                  ! Barometric Pressure {Pa}
  5.5,                                    ! Wind Speed {m/s}
  230,                                    ! Wind Direction {deg}
  0,                                      ! Sky Clearness
  0,                                      ! Rain Indicator
  0,                                      ! Snow Indicator
  21,                                     ! Day of Month
  7,                                      ! Month
  SummerDesignDay,                        ! Day Type
  0,                                      ! Daylight Saving Time Indicator
  Wetbulb,                                ! Humidity Indicating Type
  ,                                       ! Humidity Indicating Day Schedule Name
  DefaultMultipliers,                     ! Dry-Bulb Temperature Range Modifier Type
  ,                                       ! Dry-Bulb Temperature Range Modifier Schedule Name
  ASHRAETau,                              ! Solar Model Indicator
  ,                                       ! Beam Solar Day Schedule Name
  ,                                       ! Diffuse Solar Day Schedule Name
  0.507,                                  ! ASHRAE Taub {dimensionless}
  1.746;                                  ! ASHRAE Taud {dimensionless}

OS:ComponentData,
  {292b3087-691a-4607-b83e-71f248a8e2b1}, ! Handle
  Component Data 1,                       ! Name
  {0f1c9d0a-1820-4212-ad8c-4e612bba2425}, ! UUID
  {8fc32a83-e740-4908-9e1a-e9b2b017e605}, ! Version UUID
  1366309522,                             ! Creation Timestamp
  1366309522,                             ! Version Timestamp
  {8aaf76d0-f5b6-40d2-a91f-82a835ca6858}; ! Name of Object 1

