
OS:Version,
  {c032841b-28d3-457e-9074-a92c0b742f5c}, ! Handle
  0.9.3;                                  ! Version Identifier

OS:SizingPeriod:DesignDay,
  {e80c4a08-7701-45d6-af7b-823f1cad88a4}, ! Handle
  Pullman Moscow Rgnl Ann Clg 2% Condns DB=>MWB, ! Name
  29.8,                                   ! Maximum Dry-Bulb Temperature {C}
  16.9,                                   ! Daily Dry-Bulb Temperature Range {deltaC}
  17.5,                                   ! Humidity Indicating Conditions at Maximum Dry-Bulb {BasedOnField A3}
  92321,                                  ! Barometric Pressure {Pa}
  2.2,                                    ! Wind Speed {m/s}
  260,                                    ! Wind Direction {deg}
  0,                                      ! Sky Clearness
  0,                                      ! Rain Indicator
  0,                                      ! Snow Indicator
  21,                                     ! Day of Month
  7,                                      ! Month
  SummerDesignDay,                        ! Day Type
  0,                                      ! Daylight Saving Time Indicator
  Wetbulb,                                ! Humidity Indicating Type
  ,                                       ! Humidity Indicating Day Schedule Name
  DefaultMultipliers,                     ! Dry-Bulb Temperature Range Modifier Type
  ,                                       ! Dry-Bulb Temperature Range Modifier Schedule Name
  ASHRAETau,                              ! Solar Model Indicator
  ,                                       ! Beam Solar Day Schedule Name
  ,                                       ! Diffuse Solar Day Schedule Name
  0.365,                                  ! ASHRAE Taub {dimensionless}
  2.328;                                  ! ASHRAE Taud {dimensionless}

OS:ComponentData,
  {30f0d312-fca4-446e-8665-60c7dfa3ddf3}, ! Handle
  Component Data 1,                       ! Name
  {d9c84d59-b941-4dd9-b292-0fbaae9ec819}, ! UUID
  {67ce4fa9-fe24-49a3-926c-6b8a70fcc2d3}, ! Version UUID
  1366311331,                             ! Creation Timestamp
  1366311331,                             ! Version Timestamp
  {e80c4a08-7701-45d6-af7b-823f1cad88a4}; ! Name of Object 1

