
OS:Version,
  {16613020-d915-45ab-8a42-bfc5f00b9dcc}, ! Handle
  0.9.3;                                  ! Version Identifier

OS:SizingPeriod:DesignDay,
  {a2f2e8d5-2d13-41d8-9c12-d652eb2367b4}, ! Handle
  Marietta Dobbins Afb Ann Clg .4% Condns WB=>MDB, ! Name
  31,                                     ! Maximum Dry-Bulb Temperature {C}
  9.6,                                    ! Daily Dry-Bulb Temperature Range {deltaC}
  25,                                     ! Humidity Indicating Conditions at Maximum Dry-Bulb {BasedOnField A3}
  97423,                                  ! Barometric Pressure {Pa}
  2.7,                                    ! Wind Speed {m/s}
  300,                                    ! Wind Direction {deg}
  0,                                      ! Sky Clearness
  0,                                      ! Rain Indicator
  0,                                      ! Snow Indicator
  21,                                     ! Day of Month
  7,                                      ! Month
  SummerDesignDay,                        ! Day Type
  0,                                      ! Daylight Saving Time Indicator
  Wetbulb,                                ! Humidity Indicating Type
  ,                                       ! Humidity Indicating Day Schedule Name
  DefaultMultipliers,                     ! Dry-Bulb Temperature Range Modifier Type
  ,                                       ! Dry-Bulb Temperature Range Modifier Schedule Name
  ASHRAETau,                              ! Solar Model Indicator
  ,                                       ! Beam Solar Day Schedule Name
  ,                                       ! Diffuse Solar Day Schedule Name
  0.558,                                  ! ASHRAE Taub {dimensionless}
  1.77;                                   ! ASHRAE Taud {dimensionless}

OS:ComponentData,
  {06da6061-5219-4f15-a076-e78561d00c28}, ! Handle
  Component Data 1,                       ! Name
  {31ec583b-fd69-46e2-b7e9-c6dff3738324}, ! UUID
  {1b577984-c7b1-4696-ae10-b5b50d5200a6}, ! Version UUID
  1366307031,                             ! Creation Timestamp
  1366307031,                             ! Version Timestamp
  {a2f2e8d5-2d13-41d8-9c12-d652eb2367b4}; ! Name of Object 1

