
OS:Version,
  {1cf025c2-d584-40cb-84f8-ce2b4567e4fe}, ! Handle
  0.9.3;                                  ! Version Identifier

OS:SizingPeriod:DesignDay,
  {277a1c99-e668-435e-80cf-410e0a3c3800}, ! Handle
  Tacoma Mcchord Afb Ann Htg Wind 99.6% Condns WS=>MCDB, ! Name
  5.8,                                    ! Maximum Dry-Bulb Temperature {C}
  0,                                      ! Daily Dry-Bulb Temperature Range {deltaC}
  5.8,                                    ! Humidity Indicating Conditions at Maximum Dry-Bulb {BasedOnField A3}
  100272,                                 ! Barometric Pressure {Pa}
  11.7,                                   ! Wind Speed {m/s}
  170,                                    ! Wind Direction {deg}
  0,                                      ! Sky Clearness
  0,                                      ! Rain Indicator
  0,                                      ! Snow Indicator
  21,                                     ! Day of Month
  12,                                     ! Month
  WinterDesignDay,                        ! Day Type
  0,                                      ! Daylight Saving Time Indicator
  Wetbulb,                                ! Humidity Indicating Type
  ,                                       ! Humidity Indicating Day Schedule Name
  DefaultMultipliers,                     ! Dry-Bulb Temperature Range Modifier Type
  ,                                       ! Dry-Bulb Temperature Range Modifier Schedule Name
  ASHRAEClearSky;                         ! Solar Model Indicator

OS:ComponentData,
  {4ee82b31-ff8d-40a8-bf6d-0fed9a47dc51}, ! Handle
  Component Data 1,                       ! Name
  {fdea3648-2be4-43e6-87b8-98287bb929c1}, ! UUID
  {c13b04ed-c8f8-41ad-b67a-9663866ce76d}, ! Version UUID
  1366311405,                             ! Creation Timestamp
  1366311405,                             ! Version Timestamp
  {277a1c99-e668-435e-80cf-410e0a3c3800}; ! Name of Object 1

