
OS:Version,
  {5731a515-2c0c-4aa0-a676-5ece62fc7890}, ! Handle
  0.9.3;                                  ! Version Identifier

OS:SizingPeriod:DesignDay,
  {e20b470d-5189-4e90-875c-536cb44d3b6d}, ! Handle
  Randolph Afb Ann Hum_n 99% Condns DP=>MCDB, ! Name
  5.7,                                    ! Maximum Dry-Bulb Temperature {C}
  0,                                      ! Daily Dry-Bulb Temperature Range {deltaC}
  -8.6,                                   ! Humidity Indicating Conditions at Maximum Dry-Bulb {BasedOnField A3}
  98569,                                  ! Barometric Pressure {Pa}
  3.6,                                    ! Wind Speed {m/s}
  340,                                    ! Wind Direction {deg}
  0,                                      ! Sky Clearness
  0,                                      ! Rain Indicator
  0,                                      ! Snow Indicator
  21,                                     ! Day of Month
  1,                                      ! Month
  WinterDesignDay,                        ! Day Type
  0,                                      ! Daylight Saving Time Indicator
  Dewpoint,                               ! Humidity Indicating Type
  ,                                       ! Humidity Indicating Day Schedule Name
  DefaultMultipliers,                     ! Dry-Bulb Temperature Range Modifier Type
  ,                                       ! Dry-Bulb Temperature Range Modifier Schedule Name
  ASHRAEClearSky;                         ! Solar Model Indicator

OS:ComponentData,
  {c8841c2d-c7ef-42df-976f-8abdb3f11bf2}, ! Handle
  Component Data 1,                       ! Name
  {d11ae61e-7532-4eb9-8d1c-3fa329698a6e}, ! UUID
  {a70e9f6a-b4ea-481c-b9a5-c384b630adad}, ! Version UUID
  1366310859,                             ! Creation Timestamp
  1366310859,                             ! Version Timestamp
  {e20b470d-5189-4e90-875c-536cb44d3b6d}; ! Name of Object 1

