
OS:Version,
  {5323ec60-f67c-4166-bbe3-66a95c983629}, ! Handle
  0.9.3;                                  ! Version Identifier

OS:SizingPeriod:DesignDay,
  {2938620f-b3a9-4dfb-8f9f-befac8c8c151}, ! Handle
  Montgomery Dannelly Field Ann Htg Wind 99.6% Condns WS=>MCDB, ! Name
  10.8,                                   ! Maximum Dry-Bulb Temperature {C}
  0,                                      ! Daily Dry-Bulb Temperature Range {deltaC}
  10.8,                                   ! Humidity Indicating Conditions at Maximum Dry-Bulb {BasedOnField A3}
  100582,                                 ! Barometric Pressure {Pa}
  9.9,                                    ! Wind Speed {m/s}
  310,                                    ! Wind Direction {deg}
  0,                                      ! Sky Clearness
  0,                                      ! Rain Indicator
  0,                                      ! Snow Indicator
  21,                                     ! Day of Month
  1,                                      ! Month
  WinterDesignDay,                        ! Day Type
  0,                                      ! Daylight Saving Time Indicator
  Wetbulb,                                ! Humidity Indicating Type
  ,                                       ! Humidity Indicating Day Schedule Name
  DefaultMultipliers,                     ! Dry-Bulb Temperature Range Modifier Type
  ,                                       ! Dry-Bulb Temperature Range Modifier Schedule Name
  ASHRAEClearSky;                         ! Solar Model Indicator

OS:ComponentData,
  {a10172a1-f033-4b49-bf2d-d1edf275678d}, ! Handle
  Component Data 1,                       ! Name
  {4d7b5595-ce71-400d-9c7d-1efe752f5cbf}, ! UUID
  {762edf08-c19e-401d-83c8-aa7a9e19f316}, ! Version UUID
  1366305902,                             ! Creation Timestamp
  1366305902,                             ! Version Timestamp
  {2938620f-b3a9-4dfb-8f9f-befac8c8c151}; ! Name of Object 1

