
OS:Version,
  {5ca1aca5-9a38-481d-87aa-9a52bb7239b5}, ! Handle
  0.9.3;                                  ! Version Identifier

OS:SizingPeriod:DesignDay,
  {97e18e98-a3d1-430b-aef0-31dde6337ed3}, ! Handle
  Vance Afb Ann Clg 1% Condns DB=>MWB,    ! Name
  37,                                     ! Maximum Dry-Bulb Temperature {C}
  12.3,                                   ! Daily Dry-Bulb Temperature Range {deltaC}
  23,                                     ! Humidity Indicating Conditions at Maximum Dry-Bulb {BasedOnField A3}
  96519,                                  ! Barometric Pressure {Pa}
  5.5,                                    ! Wind Speed {m/s}
  190,                                    ! Wind Direction {deg}
  0,                                      ! Sky Clearness
  0,                                      ! Rain Indicator
  0,                                      ! Snow Indicator
  21,                                     ! Day of Month
  7,                                      ! Month
  SummerDesignDay,                        ! Day Type
  0,                                      ! Daylight Saving Time Indicator
  Wetbulb,                                ! Humidity Indicating Type
  ,                                       ! Humidity Indicating Day Schedule Name
  DefaultMultipliers,                     ! Dry-Bulb Temperature Range Modifier Type
  ,                                       ! Dry-Bulb Temperature Range Modifier Schedule Name
  ASHRAETau,                              ! Solar Model Indicator
  ,                                       ! Beam Solar Day Schedule Name
  ,                                       ! Diffuse Solar Day Schedule Name
  0.425,                                  ! ASHRAE Taub {dimensionless}
  2.194;                                  ! ASHRAE Taud {dimensionless}

OS:ComponentData,
  {7ea96dfa-8386-4b20-a28b-afd7ac6571cc}, ! Handle
  Component Data 1,                       ! Name
  {12ff7681-226c-4b51-9f2f-28392348814f}, ! UUID
  {2e2778ee-5c5f-4eeb-a0b8-a656eb990dda}, ! Version UUID
  1366309962,                             ! Creation Timestamp
  1366309962,                             ! Version Timestamp
  {97e18e98-a3d1-430b-aef0-31dde6337ed3}; ! Name of Object 1

