
OS:Version,
  {9c8ae1cb-cc72-43d9-a4e2-4210970a2434}, ! Handle
  0.9.3;                                  ! Version Identifier

OS:SizingPeriod:DesignDay,
  {84e3f44b-fb7e-4aa2-8109-23d9d28c3b6c}, ! Handle
  Rome R B Russell Ap Ann Hum_n 99.6% Condns DP=>MCDB, ! Name
  -5.4,                                   ! Maximum Dry-Bulb Temperature {C}
  0,                                      ! Daily Dry-Bulb Temperature Range {deltaC}
  -16.8,                                  ! Humidity Indicating Conditions at Maximum Dry-Bulb {BasedOnField A3}
  99004,                                  ! Barometric Pressure {Pa}
  1.6,                                    ! Wind Speed {m/s}
  350,                                    ! Wind Direction {deg}
  0,                                      ! Sky Clearness
  0,                                      ! Rain Indicator
  0,                                      ! Snow Indicator
  21,                                     ! Day of Month
  1,                                      ! Month
  WinterDesignDay,                        ! Day Type
  0,                                      ! Daylight Saving Time Indicator
  Dewpoint,                               ! Humidity Indicating Type
  ,                                       ! Humidity Indicating Day Schedule Name
  DefaultMultipliers,                     ! Dry-Bulb Temperature Range Modifier Type
  ,                                       ! Dry-Bulb Temperature Range Modifier Schedule Name
  ASHRAEClearSky;                         ! Solar Model Indicator

OS:ComponentData,
  {7093306d-662f-4631-ac21-1ea3399e70aa}, ! Handle
  Component Data 1,                       ! Name
  {1d8f8b76-6f8f-4480-9a37-b5a90f486b15}, ! UUID
  {f404a251-564c-4adc-870b-318e5d6d011f}, ! Version UUID
  1366307035,                             ! Creation Timestamp
  1366307035,                             ! Version Timestamp
  {84e3f44b-fb7e-4aa2-8109-23d9d28c3b6c}; ! Name of Object 1

