
OS:Version,
  {56034b5b-54bc-48ee-bee7-d2f0dfad556b}, ! Handle
  0.9.3;                                  ! Version Identifier

OS:SizingPeriod:DesignDay,
  {68874548-a21f-4e7d-8d43-18c155e52c3b}, ! Handle
  MONTGOMERY Ann Clg 2% Condns Enth=>MDB, ! Name
  31.2,                                   ! Maximum Dry-Bulb Temperature {C}
  10.9,                                   ! Daily Dry-Bulb Temperature Range {deltaC}
  77900,                                  ! Humidity Indicating Conditions at Maximum Dry-Bulb {BasedOnField A3}
  100582,                                 ! Barometric Pressure {Pa}
  3.1,                                    ! Wind Speed {m/s}
  300,                                    ! Wind Direction {deg}
  0,                                      ! Sky Clearness
  0,                                      ! Rain Indicator
  0,                                      ! Snow Indicator
  21,                                     ! Day of Month
  7,                                      ! Month
  SummerDesignDay,                        ! Day Type
  0,                                      ! Daylight Saving Time Indicator
  Enthalpy,                               ! Humidity Indicating Type
  ,                                       ! Humidity Indicating Day Schedule Name
  DefaultMultipliers,                     ! Dry-Bulb Temperature Range Modifier Type
  ,                                       ! Dry-Bulb Temperature Range Modifier Schedule Name
  ASHRAETau,                              ! Solar Model Indicator
  ,                                       ! Beam Solar Day Schedule Name
  ,                                       ! Diffuse Solar Day Schedule Name
  0.573,                                  ! ASHRAE Taub {dimensionless}
  1.761;                                  ! ASHRAE Taud {dimensionless}

OS:ComponentData,
  {55810814-6124-499a-8347-8245856ec300}, ! Handle
  Component Data 1,                       ! Name
  {8ab51fa3-eb29-4b4e-ad9f-e0e7c9b0f438}, ! UUID
  {70f1dff5-38af-4557-af51-dc9111ad0dbe}, ! Version UUID
  1366305958,                             ! Creation Timestamp
  1366305958,                             ! Version Timestamp
  {68874548-a21f-4e7d-8d43-18c155e52c3b}; ! Name of Object 1

