
OS:Version,
  {8f6ea22a-413a-4875-b33c-b8d54aac265f}, ! Handle
  0.9.3;                                  ! Version Identifier

OS:SizingPeriod:DesignDay,
  {95b9cf4b-a969-4f3d-8366-8de427d1ee89}, ! Handle
  Wichita Falls/Sheppard Ann Htg Wind 99% Condns WS=>MCDB, ! Name
  7.6,                                    ! Maximum Dry-Bulb Temperature {C}
  0,                                      ! Daily Dry-Bulb Temperature Range {deltaC}
  7.6,                                    ! Humidity Indicating Conditions at Maximum Dry-Bulb {BasedOnField A3}
  97609,                                  ! Barometric Pressure {Pa}
  12.3,                                   ! Wind Speed {m/s}
  0,                                      ! Wind Direction {deg}
  0,                                      ! Sky Clearness
  0,                                      ! Rain Indicator
  0,                                      ! Snow Indicator
  21,                                     ! Day of Month
  1,                                      ! Month
  WinterDesignDay,                        ! Day Type
  0,                                      ! Daylight Saving Time Indicator
  Wetbulb,                                ! Humidity Indicating Type
  ,                                       ! Humidity Indicating Day Schedule Name
  DefaultMultipliers,                     ! Dry-Bulb Temperature Range Modifier Type
  ,                                       ! Dry-Bulb Temperature Range Modifier Schedule Name
  ASHRAEClearSky;                         ! Solar Model Indicator

OS:ComponentData,
  {8ee3845c-4252-4797-98f3-93732d9448cd}, ! Handle
  Component Data 1,                       ! Name
  {dbfd909c-2626-4324-b840-98cab4030dc6}, ! UUID
  {edede7f6-aa7a-4c62-92a2-4002bfe5373c}, ! Version UUID
  1366310931,                             ! Creation Timestamp
  1366310931,                             ! Version Timestamp
  {95b9cf4b-a969-4f3d-8366-8de427d1ee89}; ! Name of Object 1

