
OS:Version,
  {0e100c75-8c18-42b3-89a5-f749f5c3d92a}, ! Handle
  0.9.3;                                  ! Version Identifier

OS:SizingPeriod:DesignDay,
  {6da9d0f7-be60-4bac-ac49-542ac6a01611}, ! Handle
  Milwaukee Mitchell Intl Ap Ann Hum_n 99.6% Condns DP=>MCDB, ! Name
  -18.9,                                  ! Maximum Dry-Bulb Temperature {C}
  0,                                      ! Daily Dry-Bulb Temperature Range {deltaC}
  -26.1,                                  ! Humidity Indicating Conditions at Maximum Dry-Bulb {BasedOnField A3}
  98886,                                  ! Barometric Pressure {Pa}
  5.7,                                    ! Wind Speed {m/s}
  300,                                    ! Wind Direction {deg}
  0,                                      ! Sky Clearness
  0,                                      ! Rain Indicator
  0,                                      ! Snow Indicator
  21,                                     ! Day of Month
  1,                                      ! Month
  WinterDesignDay,                        ! Day Type
  0,                                      ! Daylight Saving Time Indicator
  Dewpoint,                               ! Humidity Indicating Type
  ,                                       ! Humidity Indicating Day Schedule Name
  DefaultMultipliers,                     ! Dry-Bulb Temperature Range Modifier Type
  ,                                       ! Dry-Bulb Temperature Range Modifier Schedule Name
  ASHRAEClearSky;                         ! Solar Model Indicator

OS:ComponentData,
  {ca041af1-7fa5-4add-9862-3db464df26da}, ! Handle
  Component Data 1,                       ! Name
  {aa2b739f-3e2e-4513-9f11-cb195666a04c}, ! UUID
  {bd036cb7-ac79-4dab-8697-ff781fd0cd68}, ! Version UUID
  1366311556,                             ! Creation Timestamp
  1366311556,                             ! Version Timestamp
  {6da9d0f7-be60-4bac-ac49-542ac6a01611}; ! Name of Object 1

