
OS:Version,
  {601461d6-083e-42a0-a689-e1c021763929}, ! Handle
  0.9.3;                                  ! Version Identifier

OS:SizingPeriod:DesignDay,
  {09f50edb-c3cf-4f66-bbf1-5c4c19d28801}, ! Handle
  Safford  Amos Ann Clg 1% Condns WB=>MDB, ! Name
  31.5,                                   ! Maximum Dry-Bulb Temperature {C}
  15,                                     ! Daily Dry-Bulb Temperature Range {deltaC}
  21.3,                                   ! Humidity Indicating Conditions at Maximum Dry-Bulb {BasedOnField A3}
  90421,                                  ! Barometric Pressure {Pa}
  4.3,                                    ! Wind Speed {m/s}
  300,                                    ! Wind Direction {deg}
  0,                                      ! Sky Clearness
  0,                                      ! Rain Indicator
  0,                                      ! Snow Indicator
  21,                                     ! Day of Month
  7,                                      ! Month
  SummerDesignDay,                        ! Day Type
  0,                                      ! Daylight Saving Time Indicator
  Wetbulb,                                ! Humidity Indicating Type
  ,                                       ! Humidity Indicating Day Schedule Name
  DefaultMultipliers,                     ! Dry-Bulb Temperature Range Modifier Type
  ,                                       ! Dry-Bulb Temperature Range Modifier Schedule Name
  ASHRAETau,                              ! Solar Model Indicator
  ,                                       ! Beam Solar Day Schedule Name
  ,                                       ! Diffuse Solar Day Schedule Name
  0.58,                                   ! ASHRAE Taub {dimensionless}
  1.663;                                  ! ASHRAE Taud {dimensionless}

OS:ComponentData,
  {c185813b-4284-4dfe-a243-1627fea9b303}, ! Handle
  Component Data 1,                       ! Name
  {e0f13c10-2cf7-4189-ac81-6e461824eeb8}, ! UUID
  {8391ba3c-b575-4546-a7fa-33934fb727d3}, ! Version UUID
  1366306312,                             ! Creation Timestamp
  1366306312,                             ! Version Timestamp
  {09f50edb-c3cf-4f66-bbf1-5c4c19d28801}; ! Name of Object 1

