
OS:Version,
  {607885ea-a8f4-4077-8e89-d81cdb3914f0}, ! Handle
  0.9.3;                                  ! Version Identifier

OS:SizingPeriod:DesignDay,
  {668c7c0e-3ddb-4fe1-b51a-a0712035df7b}, ! Handle
  Pease Intl Tradepor Ann Clg 1% Condns DP=>MDB, ! Name
  25.7,                                   ! Maximum Dry-Bulb Temperature {C}
  10.1,                                   ! Daily Dry-Bulb Temperature Range {deltaC}
  21.7,                                   ! Humidity Indicating Conditions at Maximum Dry-Bulb {BasedOnField A3}
  100953,                                 ! Barometric Pressure {Pa}
  4.1,                                    ! Wind Speed {m/s}
  260,                                    ! Wind Direction {deg}
  0,                                      ! Sky Clearness
  0,                                      ! Rain Indicator
  0,                                      ! Snow Indicator
  21,                                     ! Day of Month
  7,                                      ! Month
  SummerDesignDay,                        ! Day Type
  0,                                      ! Daylight Saving Time Indicator
  Dewpoint,                               ! Humidity Indicating Type
  ,                                       ! Humidity Indicating Day Schedule Name
  DefaultMultipliers,                     ! Dry-Bulb Temperature Range Modifier Type
  ,                                       ! Dry-Bulb Temperature Range Modifier Schedule Name
  ASHRAETau,                              ! Solar Model Indicator
  ,                                       ! Beam Solar Day Schedule Name
  ,                                       ! Diffuse Solar Day Schedule Name
  0.477,                                  ! ASHRAE Taub {dimensionless}
  1.97;                                   ! ASHRAE Taud {dimensionless}

OS:ComponentData,
  {f5df01cb-49ac-45c9-be85-d6eb9ef32913}, ! Handle
  Component Data 1,                       ! Name
  {2ab0ac45-4601-4281-bac7-14472f2a9892}, ! UUID
  {314f474c-06dc-41b4-803e-b5ea1d34578f}, ! Version UUID
  1366309278,                             ! Creation Timestamp
  1366309278,                             ! Version Timestamp
  {668c7c0e-3ddb-4fe1-b51a-a0712035df7b}; ! Name of Object 1

