
OS:Version,
  {148631d3-df21-4231-ba31-0d3d5750279d}, ! Handle
  0.9.3;                                  ! Version Identifier

OS:SizingPeriod:DesignDay,
  {ed12a644-7acc-4a97-9dcb-0e4709f1acf4}, ! Handle
  PORTLAND Ann Clg .4% Condns DP=>MDB,    ! Name
  25.9,                                   ! Maximum Dry-Bulb Temperature {C}
  10,                                     ! Daily Dry-Bulb Temperature Range {deltaC}
  21.6,                                   ! Humidity Indicating Conditions at Maximum Dry-Bulb {BasedOnField A3}
  101097,                                 ! Barometric Pressure {Pa}
  4.9,                                    ! Wind Speed {m/s}
  260,                                    ! Wind Direction {deg}
  0,                                      ! Sky Clearness
  0,                                      ! Rain Indicator
  0,                                      ! Snow Indicator
  21,                                     ! Day of Month
  7,                                      ! Month
  SummerDesignDay,                        ! Day Type
  0,                                      ! Daylight Saving Time Indicator
  Dewpoint,                               ! Humidity Indicating Type
  ,                                       ! Humidity Indicating Day Schedule Name
  DefaultMultipliers,                     ! Dry-Bulb Temperature Range Modifier Type
  ,                                       ! Dry-Bulb Temperature Range Modifier Schedule Name
  ASHRAETau,                              ! Solar Model Indicator
  ,                                       ! Beam Solar Day Schedule Name
  ,                                       ! Diffuse Solar Day Schedule Name
  0.477,                                  ! ASHRAE Taub {dimensionless}
  1.97;                                   ! ASHRAE Taud {dimensionless}

OS:ComponentData,
  {29c40737-e784-48b7-b100-cff86127c3aa}, ! Handle
  Component Data 1,                       ! Name
  {27a8c60c-9564-44d0-b599-00de45f8af12}, ! UUID
  {194d69b4-bbf6-404d-9029-a323bb006763}, ! Version UUID
  1366307908,                             ! Creation Timestamp
  1366307908,                             ! Version Timestamp
  {ed12a644-7acc-4a97-9dcb-0e4709f1acf4}; ! Name of Object 1

