
OS:Version,
  {263ae22d-bb19-4688-a3b9-4cbf7bcee9a0}, ! Handle
  0.9.3;                                  ! Version Identifier

OS:SizingPeriod:DesignDay,
  {cb827e99-2d9e-42bc-add0-dab6a0bab9f3}, ! Handle
  SIOUX_CITY Ann Hum_n 99.6% Condns DP=>MCDB, ! Name
  -22.3,                                  ! Maximum Dry-Bulb Temperature {C}
  0,                                      ! Daily Dry-Bulb Temperature Range {deltaC}
  -27.1,                                  ! Humidity Indicating Conditions at Maximum Dry-Bulb {BasedOnField A3}
  97353,                                  ! Barometric Pressure {Pa}
  5.2,                                    ! Wind Speed {m/s}
  320,                                    ! Wind Direction {deg}
  0,                                      ! Sky Clearness
  0,                                      ! Rain Indicator
  0,                                      ! Snow Indicator
  21,                                     ! Day of Month
  1,                                      ! Month
  WinterDesignDay,                        ! Day Type
  0,                                      ! Daylight Saving Time Indicator
  Dewpoint,                               ! Humidity Indicating Type
  ,                                       ! Humidity Indicating Day Schedule Name
  DefaultMultipliers,                     ! Dry-Bulb Temperature Range Modifier Type
  ,                                       ! Dry-Bulb Temperature Range Modifier Schedule Name
  ASHRAEClearSky;                         ! Solar Model Indicator

OS:ComponentData,
  {cbb2ff9a-4b16-4076-a6ef-3b9dccdcaf1f}, ! Handle
  Component Data 1,                       ! Name
  {635d5d49-de80-44c8-99a6-6eda7f461888}, ! UUID
  {9f4e77d5-2047-40c2-90e5-37d9d9cabf3e}, ! Version UUID
  1366307238,                             ! Creation Timestamp
  1366307238,                             ! Version Timestamp
  {cb827e99-2d9e-42bc-add0-dab6a0bab9f3}; ! Name of Object 1

