
OS:Version,
  {12da3261-d600-496b-bead-b423efd06891}, ! Handle
  0.9.3;                                  ! Version Identifier

OS:SizingPeriod:DesignDay,
  {a7a12242-5b50-4160-a8fe-f10f08c2ee33}, ! Handle
  Pendleton E Or Regional Ap Ann Clg .4% Condns DB=>MWB, ! Name
  35.8,                                   ! Maximum Dry-Bulb Temperature {C}
  15.8,                                   ! Daily Dry-Bulb Temperature Range {deltaC}
  18.3,                                   ! Humidity Indicating Conditions at Maximum Dry-Bulb {BasedOnField A3}
  96012,                                  ! Barometric Pressure {Pa}
  4.1,                                    ! Wind Speed {m/s}
  300,                                    ! Wind Direction {deg}
  0,                                      ! Sky Clearness
  0,                                      ! Rain Indicator
  0,                                      ! Snow Indicator
  21,                                     ! Day of Month
  7,                                      ! Month
  SummerDesignDay,                        ! Day Type
  0,                                      ! Daylight Saving Time Indicator
  Wetbulb,                                ! Humidity Indicating Type
  ,                                       ! Humidity Indicating Day Schedule Name
  DefaultMultipliers,                     ! Dry-Bulb Temperature Range Modifier Type
  ,                                       ! Dry-Bulb Temperature Range Modifier Schedule Name
  ASHRAETau,                              ! Solar Model Indicator
  ,                                       ! Beam Solar Day Schedule Name
  ,                                       ! Diffuse Solar Day Schedule Name
  0.384,                                  ! ASHRAE Taub {dimensionless}
  2.273;                                  ! ASHRAE Taud {dimensionless}

OS:ComponentData,
  {a919bfc3-f751-46be-99e0-3a86d5ba3892}, ! Handle
  Component Data 1,                       ! Name
  {7c69816c-6bfb-45a9-9d1e-e78bd6796da7}, ! UUID
  {6930c31e-04d2-4aee-bcc9-320b44184317}, ! Version UUID
  1366310058,                             ! Creation Timestamp
  1366310058,                             ! Version Timestamp
  {a7a12242-5b50-4160-a8fe-f10f08c2ee33}; ! Name of Object 1

