
OS:Version,
  {9fabfee1-a794-4ac9-9d25-2fe150b16f04}, ! Handle
  0.9.3;                                  ! Version Identifier

OS:SizingPeriod:DesignDay,
  {f04c3890-f9ec-4968-98f4-f2fc17304e47}, ! Handle
  Salem Ann Clg 1% Condns WB=>MDB,        ! Name
  29.5,                                   ! Maximum Dry-Bulb Temperature {C}
  15.4,                                   ! Daily Dry-Bulb Temperature Range {deltaC}
  19.5,                                   ! Humidity Indicating Conditions at Maximum Dry-Bulb {BasedOnField A3}
  100594,                                 ! Barometric Pressure {Pa}
  4.3,                                    ! Wind Speed {m/s}
  0,                                      ! Wind Direction {deg}
  0,                                      ! Sky Clearness
  0,                                      ! Rain Indicator
  0,                                      ! Snow Indicator
  21,                                     ! Day of Month
  8,                                      ! Month
  SummerDesignDay,                        ! Day Type
  0,                                      ! Daylight Saving Time Indicator
  Wetbulb,                                ! Humidity Indicating Type
  ,                                       ! Humidity Indicating Day Schedule Name
  DefaultMultipliers,                     ! Dry-Bulb Temperature Range Modifier Type
  ,                                       ! Dry-Bulb Temperature Range Modifier Schedule Name
  ASHRAETau,                              ! Solar Model Indicator
  ,                                       ! Beam Solar Day Schedule Name
  ,                                       ! Diffuse Solar Day Schedule Name
  0.355,                                  ! ASHRAE Taub {dimensionless}
  2.578;                                  ! ASHRAE Taud {dimensionless}

OS:ComponentData,
  {5e7de55b-3b2e-4209-84fa-28de72f2cd5d}, ! Handle
  Component Data 1,                       ! Name
  {6d3a8e76-584c-4c7e-9a68-015e3efa05cd}, ! UUID
  {542a113b-7874-47c3-8f8e-9acbfd887b5d}, ! Version UUID
  1366310109,                             ! Creation Timestamp
  1366310109,                             ! Version Timestamp
  {f04c3890-f9ec-4968-98f4-f2fc17304e47}; ! Name of Object 1

