
OS:Version,
  {b536db2a-21cf-4115-961b-e3463a43a666}, ! Handle
  0.9.3;                                  ! Version Identifier

OS:SizingPeriod:DesignDay,
  {638d593b-9eb3-4e11-8392-8e86130bcf03}, ! Handle
  Manassas Muni Awos Ann Clg 1% Condns Enth=>MDB, ! Name
  30.4,                                   ! Maximum Dry-Bulb Temperature {C}
  11.3,                                   ! Daily Dry-Bulb Temperature Range {deltaC}
  73300,                                  ! Humidity Indicating Conditions at Maximum Dry-Bulb {BasedOnField A3}
  100618,                                 ! Barometric Pressure {Pa}
  3.5,                                    ! Wind Speed {m/s}
  200,                                    ! Wind Direction {deg}
  0,                                      ! Sky Clearness
  0,                                      ! Rain Indicator
  0,                                      ! Snow Indicator
  21,                                     ! Day of Month
  7,                                      ! Month
  SummerDesignDay,                        ! Day Type
  0,                                      ! Daylight Saving Time Indicator
  Enthalpy,                               ! Humidity Indicating Type
  ,                                       ! Humidity Indicating Day Schedule Name
  DefaultMultipliers,                     ! Dry-Bulb Temperature Range Modifier Type
  ,                                       ! Dry-Bulb Temperature Range Modifier Schedule Name
  ASHRAETau,                              ! Solar Model Indicator
  ,                                       ! Beam Solar Day Schedule Name
  ,                                       ! Diffuse Solar Day Schedule Name
  0.555,                                  ! ASHRAE Taub {dimensionless}
  1.764;                                  ! ASHRAE Taud {dimensionless}

OS:ComponentData,
  {0fcdba9b-3bad-4e1d-a983-8f726ef52cb5}, ! Handle
  Component Data 1,                       ! Name
  {c6e453e3-23b8-4da7-951a-41791eda7a01}, ! UUID
  {709d95f9-9d7e-468c-b676-54787cf0815f}, ! Version UUID
  1366311097,                             ! Creation Timestamp
  1366311097,                             ! Version Timestamp
  {638d593b-9eb3-4e11-8392-8e86130bcf03}; ! Name of Object 1

