
OS:Version,
  {20fe2987-67a9-4bae-a881-88f37fd2324f}, ! Handle
  0.9.3;                                  ! Version Identifier

OS:SizingPeriod:DesignDay,
  {45d3824e-7f0d-488c-ae9b-ac69531a48b5}, ! Handle
  Truth Or Consequences Muni Ap Ann Htg 99.6% Condns DB, ! Name
  -6.4,                                   ! Maximum Dry-Bulb Temperature {C}
  0,                                      ! Daily Dry-Bulb Temperature Range {deltaC}
  -6.4,                                   ! Humidity Indicating Conditions at Maximum Dry-Bulb {BasedOnField A3}
  84784,                                  ! Barometric Pressure {Pa}
  3.5,                                    ! Wind Speed {m/s}
  10,                                     ! Wind Direction {deg}
  0,                                      ! Sky Clearness
  0,                                      ! Rain Indicator
  0,                                      ! Snow Indicator
  21,                                     ! Day of Month
  12,                                     ! Month
  WinterDesignDay,                        ! Day Type
  0,                                      ! Daylight Saving Time Indicator
  Wetbulb,                                ! Humidity Indicating Type
  ,                                       ! Humidity Indicating Day Schedule Name
  DefaultMultipliers,                     ! Dry-Bulb Temperature Range Modifier Type
  ,                                       ! Dry-Bulb Temperature Range Modifier Schedule Name
  ASHRAEClearSky;                         ! Solar Model Indicator

OS:ComponentData,
  {2b185101-adf7-4b35-957a-f50197d677af}, ! Handle
  Component Data 1,                       ! Name
  {d163cb17-25dd-4f7b-82d7-5991756c7b66}, ! UUID
  {50f7dc6c-bdf8-44b7-8fd8-a9482af62296}, ! Version UUID
  1366309447,                             ! Creation Timestamp
  1366309447,                             ! Version Timestamp
  {45d3824e-7f0d-488c-ae9b-ac69531a48b5}; ! Name of Object 1

