
OS:Version,
  {0ab4724f-73dd-4295-890a-b785d1a8582d}, ! Handle
  0.9.3;                                  ! Version Identifier

OS:SizingPeriod:DesignDay,
  {90e48d09-bbe6-4e74-857c-fa2d186e3e48}, ! Handle
  Milwaukee Ann Htg Wind 99% Condns WS=>MCDB, ! Name
  -5.9,                                   ! Maximum Dry-Bulb Temperature {C}
  0,                                      ! Daily Dry-Bulb Temperature Range {deltaC}
  -5.9,                                   ! Humidity Indicating Conditions at Maximum Dry-Bulb {BasedOnField A3}
  98816,                                  ! Barometric Pressure {Pa}
  11.8,                                   ! Wind Speed {m/s}
  300,                                    ! Wind Direction {deg}
  0,                                      ! Sky Clearness
  0,                                      ! Rain Indicator
  0,                                      ! Snow Indicator
  21,                                     ! Day of Month
  1,                                      ! Month
  WinterDesignDay,                        ! Day Type
  0,                                      ! Daylight Saving Time Indicator
  Wetbulb,                                ! Humidity Indicating Type
  ,                                       ! Humidity Indicating Day Schedule Name
  DefaultMultipliers,                     ! Dry-Bulb Temperature Range Modifier Type
  ,                                       ! Dry-Bulb Temperature Range Modifier Schedule Name
  ASHRAEClearSky;                         ! Solar Model Indicator

OS:ComponentData,
  {5a7d6c78-3646-4712-bc98-3c92d8f0be11}, ! Handle
  Component Data 1,                       ! Name
  {e32479f3-7f5e-4e38-8cff-816787d760ec}, ! UUID
  {1a9cddff-d9fa-402b-ba37-5a075eb0b0ce}, ! Version UUID
  1366311551,                             ! Creation Timestamp
  1366311551,                             ! Version Timestamp
  {90e48d09-bbe6-4e74-857c-fa2d186e3e48}; ! Name of Object 1

