
OS:Version,
  {fbdf0d9b-4ede-403d-9e81-796c0dc8d5cf}, ! Handle
  0.9.3;                                  ! Version Identifier

OS:SizingPeriod:DesignDay,
  {a4bc2b7c-d1db-4e8b-a890-afe52f2a680e}, ! Handle
  Winchester Rgnl Ann Clg 1% Condns DB=>MWB, ! Name
  32.6,                                   ! Maximum Dry-Bulb Temperature {C}
  11.2,                                   ! Daily Dry-Bulb Temperature Range {deltaC}
  23.2,                                   ! Humidity Indicating Conditions at Maximum Dry-Bulb {BasedOnField A3}
  98686,                                  ! Barometric Pressure {Pa}
  3.4,                                    ! Wind Speed {m/s}
  280,                                    ! Wind Direction {deg}
  0,                                      ! Sky Clearness
  0,                                      ! Rain Indicator
  0,                                      ! Snow Indicator
  21,                                     ! Day of Month
  7,                                      ! Month
  SummerDesignDay,                        ! Day Type
  0,                                      ! Daylight Saving Time Indicator
  Wetbulb,                                ! Humidity Indicating Type
  ,                                       ! Humidity Indicating Day Schedule Name
  DefaultMultipliers,                     ! Dry-Bulb Temperature Range Modifier Type
  ,                                       ! Dry-Bulb Temperature Range Modifier Schedule Name
  ASHRAETau,                              ! Solar Model Indicator
  ,                                       ! Beam Solar Day Schedule Name
  ,                                       ! Diffuse Solar Day Schedule Name
  0.532,                                  ! ASHRAE Taub {dimensionless}
  1.802;                                  ! ASHRAE Taud {dimensionless}

OS:ComponentData,
  {c0ab7414-e2c8-46b3-a97b-501dc86d7ba5}, ! Handle
  Component Data 1,                       ! Name
  {c44fecdc-2d66-4b33-becf-10425515bb2b}, ! UUID
  {8c05882f-6e24-4cc3-b2dd-acf85149e6aa}, ! Version UUID
  1366311223,                             ! Creation Timestamp
  1366311223,                             ! Version Timestamp
  {a4bc2b7c-d1db-4e8b-a890-afe52f2a680e}; ! Name of Object 1

