
OS:Version,
  {a5a6e624-c72e-4bc4-b242-e06bc85ae3bf}, ! Handle
  0.9.3;                                  ! Version Identifier

OS:SizingPeriod:DesignDay,
  {6554a689-1601-4652-97eb-af7aadd42611}, ! Handle
  Rockford Greater Rockford Ap Ann Clg 2% Condns WB=>MDB, ! Name
  28,                                     ! Maximum Dry-Bulb Temperature {C}
  11,                                     ! Daily Dry-Bulb Temperature Range {deltaC}
  23.6,                                   ! Humidity Indicating Conditions at Maximum Dry-Bulb {BasedOnField A3}
  98675,                                  ! Barometric Pressure {Pa}
  5.3,                                    ! Wind Speed {m/s}
  210,                                    ! Wind Direction {deg}
  0,                                      ! Sky Clearness
  0,                                      ! Rain Indicator
  0,                                      ! Snow Indicator
  21,                                     ! Day of Month
  7,                                      ! Month
  SummerDesignDay,                        ! Day Type
  0,                                      ! Daylight Saving Time Indicator
  Wetbulb,                                ! Humidity Indicating Type
  ,                                       ! Humidity Indicating Day Schedule Name
  DefaultMultipliers,                     ! Dry-Bulb Temperature Range Modifier Type
  ,                                       ! Dry-Bulb Temperature Range Modifier Schedule Name
  ASHRAETau,                              ! Solar Model Indicator
  ,                                       ! Beam Solar Day Schedule Name
  ,                                       ! Diffuse Solar Day Schedule Name
  0.445,                                  ! ASHRAE Taub {dimensionless}
  2.082;                                  ! ASHRAE Taud {dimensionless}

OS:ComponentData,
  {b9123a1d-265b-47eb-b109-655c0fd011a2}, ! Handle
  Component Data 1,                       ! Name
  {deeff677-014b-41c2-b2a1-039b0a08a158}, ! UUID
  {9d308185-2c26-44d9-8251-762f52c1a5b9}, ! Version UUID
  1366307393,                             ! Creation Timestamp
  1366307393,                             ! Version Timestamp
  {6554a689-1601-4652-97eb-af7aadd42611}; ! Name of Object 1

