
OS:Version,
  {fb57d2f9-3fc9-4a95-8923-77cbc4f93307}, ! Handle
  0.9.3;                                  ! Version Identifier

OS:SizingPeriod:DesignDay,
  {7978462e-7dcc-4a0d-a9c6-e891862692c2}, ! Handle
  Topeka Municipal Ap Ann Clg 2% Condns DB=>MWB, ! Name
  32.9,                                   ! Maximum Dry-Bulb Temperature {C}
  11.3,                                   ! Daily Dry-Bulb Temperature Range {deltaC}
  23.9,                                   ! Humidity Indicating Conditions at Maximum Dry-Bulb {BasedOnField A3}
  98135,                                  ! Barometric Pressure {Pa}
  4.9,                                    ! Wind Speed {m/s}
  200,                                    ! Wind Direction {deg}
  0,                                      ! Sky Clearness
  0,                                      ! Rain Indicator
  0,                                      ! Snow Indicator
  21,                                     ! Day of Month
  7,                                      ! Month
  SummerDesignDay,                        ! Day Type
  0,                                      ! Daylight Saving Time Indicator
  Wetbulb,                                ! Humidity Indicating Type
  ,                                       ! Humidity Indicating Day Schedule Name
  DefaultMultipliers,                     ! Dry-Bulb Temperature Range Modifier Type
  ,                                       ! Dry-Bulb Temperature Range Modifier Schedule Name
  ASHRAETau,                              ! Solar Model Indicator
  ,                                       ! Beam Solar Day Schedule Name
  ,                                       ! Diffuse Solar Day Schedule Name
  0.434,                                  ! ASHRAE Taub {dimensionless}
  2.183;                                  ! ASHRAE Taud {dimensionless}

OS:ComponentData,
  {66ec4c04-33f4-417f-ba76-d5261f028d34}, ! Handle
  Component Data 1,                       ! Name
  {1edf7651-0144-4a0c-9d52-2d044ef3c7c7}, ! UUID
  {d920c7e1-f119-4833-8390-6e1a46505ff0}, ! Version UUID
  1366307587,                             ! Creation Timestamp
  1366307587,                             ! Version Timestamp
  {7978462e-7dcc-4a0d-a9c6-e891862692c2}; ! Name of Object 1

