
OS:Version,
  {81734656-18e6-4362-a51a-1391be70f07a}, ! Handle
  0.9.3;                                  ! Version Identifier

OS:SizingPeriod:DesignDay,
  {9d7f98b0-d7ed-4a9b-a549-d03df8e856cc}, ! Handle
  Presque Isle Municip Ann Clg 1% Condns DP=>MDB, ! Name
  23.3,                                   ! Maximum Dry-Bulb Temperature {C}
  11.7,                                   ! Daily Dry-Bulb Temperature Range {deltaC}
  18.7,                                   ! Humidity Indicating Conditions at Maximum Dry-Bulb {BasedOnField A3}
  99382,                                  ! Barometric Pressure {Pa}
  4.5,                                    ! Wind Speed {m/s}
  270,                                    ! Wind Direction {deg}
  0,                                      ! Sky Clearness
  0,                                      ! Rain Indicator
  0,                                      ! Snow Indicator
  21,                                     ! Day of Month
  7,                                      ! Month
  SummerDesignDay,                        ! Day Type
  0,                                      ! Daylight Saving Time Indicator
  Dewpoint,                               ! Humidity Indicating Type
  ,                                       ! Humidity Indicating Day Schedule Name
  DefaultMultipliers,                     ! Dry-Bulb Temperature Range Modifier Type
  ,                                       ! Dry-Bulb Temperature Range Modifier Schedule Name
  ASHRAETau,                              ! Solar Model Indicator
  ,                                       ! Beam Solar Day Schedule Name
  ,                                       ! Diffuse Solar Day Schedule Name
  0.432,                                  ! ASHRAE Taub {dimensionless}
  2.1;                                    ! ASHRAE Taud {dimensionless}

OS:ComponentData,
  {6f20e949-4700-4769-91ef-d72e932c4e65}, ! Handle
  Component Data 1,                       ! Name
  {ed1aa766-7f9b-4537-b1d3-7170e4274088}, ! UUID
  {24a0e675-b02b-42d3-b4bc-b1bcaf75aeb0}, ! Version UUID
  1366307919,                             ! Creation Timestamp
  1366307919,                             ! Version Timestamp
  {9d7f98b0-d7ed-4a9b-a549-d03df8e856cc}; ! Name of Object 1

