
OS:Version,
  {934fff3a-e9ef-44b4-8873-97fc6d965c98}, ! Handle
  0.9.3;                                  ! Version Identifier

OS:SizingPeriod:DesignDay,
  {7baecd89-59a2-4635-b550-60be3eb8dc64}, ! Handle
  Philadelphia/Willow Gr Ann Htg 99% Condns DB, ! Name
  -8.4,                                   ! Maximum Dry-Bulb Temperature {C}
  0,                                      ! Daily Dry-Bulb Temperature Range {deltaC}
  -8.4,                                   ! Humidity Indicating Conditions at Maximum Dry-Bulb {BasedOnField A3}
  100011,                                 ! Barometric Pressure {Pa}
  5.2,                                    ! Wind Speed {m/s}
  290,                                    ! Wind Direction {deg}
  0,                                      ! Sky Clearness
  0,                                      ! Rain Indicator
  0,                                      ! Snow Indicator
  21,                                     ! Day of Month
  1,                                      ! Month
  WinterDesignDay,                        ! Day Type
  0,                                      ! Daylight Saving Time Indicator
  Wetbulb,                                ! Humidity Indicating Type
  ,                                       ! Humidity Indicating Day Schedule Name
  DefaultMultipliers,                     ! Dry-Bulb Temperature Range Modifier Type
  ,                                       ! Dry-Bulb Temperature Range Modifier Schedule Name
  ASHRAEClearSky;                         ! Solar Model Indicator

OS:ComponentData,
  {99cdb0f7-6785-4ef9-a4ca-f7bbd9429b64}, ! Handle
  Component Data 1,                       ! Name
  {37d210c9-e92b-46b4-a219-f254c383a330}, ! UUID
  {99608a2f-d89d-4b57-919a-3f9e70327e2f}, ! Version UUID
  1366310218,                             ! Creation Timestamp
  1366310218,                             ! Version Timestamp
  {7baecd89-59a2-4635-b550-60be3eb8dc64}; ! Name of Object 1

