
OS:Version,
  {9703e968-d2ab-4c73-b69d-456e61c6a670}, ! Handle
  0.9.3;                                  ! Version Identifier

OS:SizingPeriod:DesignDay,
  {308a5edd-2bda-4b8d-9c8f-7325c329dfe6}, ! Handle
  Raleigh Durham International Ann Clg 2% Condns Enth=>MDB, ! Name
  30.1,                                   ! Maximum Dry-Bulb Temperature {C}
  10.5,                                   ! Daily Dry-Bulb Temperature Range {deltaC}
  74900,                                  ! Humidity Indicating Conditions at Maximum Dry-Bulb {BasedOnField A3}
  99809,                                  ! Barometric Pressure {Pa}
  4,                                      ! Wind Speed {m/s}
  240,                                    ! Wind Direction {deg}
  0,                                      ! Sky Clearness
  0,                                      ! Rain Indicator
  0,                                      ! Snow Indicator
  21,                                     ! Day of Month
  7,                                      ! Month
  SummerDesignDay,                        ! Day Type
  0,                                      ! Daylight Saving Time Indicator
  Enthalpy,                               ! Humidity Indicating Type
  ,                                       ! Humidity Indicating Day Schedule Name
  DefaultMultipliers,                     ! Dry-Bulb Temperature Range Modifier Type
  ,                                       ! Dry-Bulb Temperature Range Modifier Schedule Name
  ASHRAETau,                              ! Solar Model Indicator
  ,                                       ! Beam Solar Day Schedule Name
  ,                                       ! Diffuse Solar Day Schedule Name
  0.577,                                  ! ASHRAE Taub {dimensionless}
  1.722;                                  ! ASHRAE Taud {dimensionless}

OS:ComponentData,
  {f8d0e51c-4fb2-4383-a8d8-fd2f99d02a86}, ! Handle
  Component Data 1,                       ! Name
  {07adb0e5-08e4-4e17-89cf-c54d80f6aad4}, ! UUID
  {b444f1c0-68fc-4653-bf51-7e9c4a938375}, ! Version UUID
  1366308975,                             ! Creation Timestamp
  1366308975,                             ! Version Timestamp
  {308a5edd-2bda-4b8d-9c8f-7325c329dfe6}; ! Name of Object 1

