
OS:Version,
  {d20e0de3-d9a6-41e7-aff7-b2e8ce3f7b6c}, ! Handle
  0.9.3;                                  ! Version Identifier

OS:SizingPeriod:DesignDay,
  {298d3e90-7a8c-4bf5-b8fe-a66bee4f3573}, ! Handle
  Mansfield Lahm Municipal Arpt Ann Hum_n 99.6% Condns DP=>MCDB, ! Name
  -17.1,                                  ! Maximum Dry-Bulb Temperature {C}
  0,                                      ! Daily Dry-Bulb Temperature Range {deltaC}
  -21.5,                                  ! Humidity Indicating Conditions at Maximum Dry-Bulb {BasedOnField A3}
  96669,                                  ! Barometric Pressure {Pa}
  4.9,                                    ! Wind Speed {m/s}
  250,                                    ! Wind Direction {deg}
  0,                                      ! Sky Clearness
  0,                                      ! Rain Indicator
  0,                                      ! Snow Indicator
  21,                                     ! Day of Month
  1,                                      ! Month
  WinterDesignDay,                        ! Day Type
  0,                                      ! Daylight Saving Time Indicator
  Dewpoint,                               ! Humidity Indicating Type
  ,                                       ! Humidity Indicating Day Schedule Name
  DefaultMultipliers,                     ! Dry-Bulb Temperature Range Modifier Type
  ,                                       ! Dry-Bulb Temperature Range Modifier Schedule Name
  ASHRAEClearSky;                         ! Solar Model Indicator

OS:ComponentData,
  {f42436d8-1342-4b55-bbdd-5b19550ded54}, ! Handle
  Component Data 1,                       ! Name
  {32730eb3-88c0-40c5-85ed-3ee9a6dbe144}, ! UUID
  {55f6c683-f64e-4729-b03c-579f5ef423c7}, ! Version UUID
  1366309830,                             ! Creation Timestamp
  1366309830,                             ! Version Timestamp
  {298d3e90-7a8c-4bf5-b8fe-a66bee4f3573}; ! Name of Object 1

