
OS:Version,
  {8dd1fd97-edd4-413d-8faa-9c9aaee2c661}, ! Handle
  0.9.3;                                  ! Version Identifier

OS:SizingPeriod:DesignDay,
  {4b701f10-931b-4629-a782-fe7c607f56a1}, ! Handle
  Oceana Nas Ann Clg .4% Condns DP=>MDB,  ! Name
  28.8,                                   ! Maximum Dry-Bulb Temperature {C}
  8.4,                                    ! Daily Dry-Bulb Temperature Range {deltaC}
  24.9,                                   ! Humidity Indicating Conditions at Maximum Dry-Bulb {BasedOnField A3}
  101229,                                 ! Barometric Pressure {Pa}
  4.4,                                    ! Wind Speed {m/s}
  220,                                    ! Wind Direction {deg}
  0,                                      ! Sky Clearness
  0,                                      ! Rain Indicator
  0,                                      ! Snow Indicator
  21,                                     ! Day of Month
  7,                                      ! Month
  SummerDesignDay,                        ! Day Type
  0,                                      ! Daylight Saving Time Indicator
  Dewpoint,                               ! Humidity Indicating Type
  ,                                       ! Humidity Indicating Day Schedule Name
  DefaultMultipliers,                     ! Dry-Bulb Temperature Range Modifier Type
  ,                                       ! Dry-Bulb Temperature Range Modifier Schedule Name
  ASHRAETau,                              ! Solar Model Indicator
  ,                                       ! Beam Solar Day Schedule Name
  ,                                       ! Diffuse Solar Day Schedule Name
  0.585,                                  ! ASHRAE Taub {dimensionless}
  1.719;                                  ! ASHRAE Taud {dimensionless}

OS:ComponentData,
  {b7bf5ca9-8a3e-451d-ac3e-d53b08d89d7b}, ! Handle
  Component Data 1,                       ! Name
  {8a2c4761-9bce-437e-aa7b-f51a90fd6842}, ! UUID
  {e328a9e0-e41c-4858-8ecf-20ce3d6f26aa}, ! Version UUID
  1366311146,                             ! Creation Timestamp
  1366311146,                             ! Version Timestamp
  {4b701f10-931b-4629-a782-fe7c607f56a1}; ! Name of Object 1

