
OS:Version,
  {55dd4542-fcf0-4a49-a222-df39defdbfb9}, ! Handle
  0.9.3;                                  ! Version Identifier

OS:SizingPeriod:DesignDay,
  {7405958d-4f4b-4373-8a0c-ac70e6dc1577}, ! Handle
  Tacoma Mcchord Afb Ann Clg 1% Condns Enth=>MDB, ! Name
  26.5,                                   ! Maximum Dry-Bulb Temperature {C}
  12.8,                                   ! Daily Dry-Bulb Temperature Range {deltaC}
  51300,                                  ! Humidity Indicating Conditions at Maximum Dry-Bulb {BasedOnField A3}
  100272,                                 ! Barometric Pressure {Pa}
  3.3,                                    ! Wind Speed {m/s}
  20,                                     ! Wind Direction {deg}
  0,                                      ! Sky Clearness
  0,                                      ! Rain Indicator
  0,                                      ! Snow Indicator
  21,                                     ! Day of Month
  8,                                      ! Month
  SummerDesignDay,                        ! Day Type
  0,                                      ! Daylight Saving Time Indicator
  Enthalpy,                               ! Humidity Indicating Type
  ,                                       ! Humidity Indicating Day Schedule Name
  DefaultMultipliers,                     ! Dry-Bulb Temperature Range Modifier Type
  ,                                       ! Dry-Bulb Temperature Range Modifier Schedule Name
  ASHRAETau,                              ! Solar Model Indicator
  ,                                       ! Beam Solar Day Schedule Name
  ,                                       ! Diffuse Solar Day Schedule Name
  0.353,                                  ! ASHRAE Taub {dimensionless}
  2.565;                                  ! ASHRAE Taud {dimensionless}

OS:ComponentData,
  {40f9e565-9fae-4676-9c9c-4c0f5c0f10a0}, ! Handle
  Component Data 1,                       ! Name
  {1767f3f9-c0f7-4b0a-9953-ceb0a6b99a55}, ! UUID
  {cda44cb5-2317-4f8a-9921-36d6cc5b2dfb}, ! Version UUID
  1366311408,                             ! Creation Timestamp
  1366311408,                             ! Version Timestamp
  {7405958d-4f4b-4373-8a0c-ac70e6dc1577}; ! Name of Object 1

