
OS:Version,
  {85372f00-e21d-4800-b3a1-9b52b47f8c6e}, ! Handle
  0.9.3;                                  ! Version Identifier

OS:SizingPeriod:DesignDay,
  {9c18d175-95a0-48f9-9067-7bd998886945}, ! Handle
  New York J F Kennedy IntL Ar Ann Clg .4% Condns WB=>MDB, ! Name
  29.1,                                   ! Maximum Dry-Bulb Temperature {C}
  7.4,                                    ! Daily Dry-Bulb Temperature Range {deltaC}
  25,                                     ! Humidity Indicating Conditions at Maximum Dry-Bulb {BasedOnField A3}
  101265,                                 ! Barometric Pressure {Pa}
  5.6,                                    ! Wind Speed {m/s}
  230,                                    ! Wind Direction {deg}
  0,                                      ! Sky Clearness
  0,                                      ! Rain Indicator
  0,                                      ! Snow Indicator
  21,                                     ! Day of Month
  7,                                      ! Month
  SummerDesignDay,                        ! Day Type
  0,                                      ! Daylight Saving Time Indicator
  Wetbulb,                                ! Humidity Indicating Type
  ,                                       ! Humidity Indicating Day Schedule Name
  DefaultMultipliers,                     ! Dry-Bulb Temperature Range Modifier Type
  ,                                       ! Dry-Bulb Temperature Range Modifier Schedule Name
  ASHRAETau,                              ! Solar Model Indicator
  ,                                       ! Beam Solar Day Schedule Name
  ,                                       ! Diffuse Solar Day Schedule Name
  0.541,                                  ! ASHRAE Taub {dimensionless}
  1.8;                                    ! ASHRAE Taud {dimensionless}

OS:ComponentData,
  {36589189-3ee9-42f9-985b-5540bc2410ea}, ! Handle
  Component Data 1,                       ! Name
  {fd4b8933-a194-4252-8cac-4bc8ea5207ad}, ! UUID
  {a42bea19-bd93-46b4-a8ec-b5cbff3f1f5a}, ! Version UUID
  1366309665,                             ! Creation Timestamp
  1366309665,                             ! Version Timestamp
  {9c18d175-95a0-48f9-9067-7bd998886945}; ! Name of Object 1

