
OS:Version,
  {5ec1f690-efd9-44bd-953f-b5bb5e065f39}, ! Handle
  0.9.3;                                  ! Version Identifier

OS:SizingPeriod:DesignDay,
  {1e740a70-b399-4be7-828f-2d3f930d3125}, ! Handle
  Mccook Municipal Ann Hum_n 99% Condns DP=>MCDB, ! Name
  -12,                                    ! Maximum Dry-Bulb Temperature {C}
  0,                                      ! Daily Dry-Bulb Temperature Range {deltaC}
  -17.9,                                  ! Humidity Indicating Conditions at Maximum Dry-Bulb {BasedOnField A3}
  92232,                                  ! Barometric Pressure {Pa}
  3.9,                                    ! Wind Speed {m/s}
  320,                                    ! Wind Direction {deg}
  0,                                      ! Sky Clearness
  0,                                      ! Rain Indicator
  0,                                      ! Snow Indicator
  21,                                     ! Day of Month
  1,                                      ! Month
  WinterDesignDay,                        ! Day Type
  0,                                      ! Daylight Saving Time Indicator
  Dewpoint,                               ! Humidity Indicating Type
  ,                                       ! Humidity Indicating Day Schedule Name
  DefaultMultipliers,                     ! Dry-Bulb Temperature Range Modifier Type
  ,                                       ! Dry-Bulb Temperature Range Modifier Schedule Name
  ASHRAEClearSky;                         ! Solar Model Indicator

OS:ComponentData,
  {84936f52-886d-4a13-aaaf-aa828bab2184}, ! Handle
  Component Data 1,                       ! Name
  {94e70c9d-e9e6-450a-a433-1cb5126ab3ff}, ! UUID
  {65392df5-6ff0-4b33-b84b-4ff83d7534a4}, ! Version UUID
  1366309143,                             ! Creation Timestamp
  1366309143,                             ! Version Timestamp
  {1e740a70-b399-4be7-828f-2d3f930d3125}; ! Name of Object 1

