
OS:Version,
  {eee8a456-4a08-45cc-b354-0f380a499c62}, ! Handle
  0.9.3;                                  ! Version Identifier

OS:SizingPeriod:DesignDay,
  {88baa0e4-bb72-4615-a74c-f9012dcd95b4}, ! Handle
  Ukiah Municipal Ap Ann Clg .4% Condns Enth=>MDB, ! Name
  35.1,                                   ! Maximum Dry-Bulb Temperature {C}
  19.5,                                   ! Daily Dry-Bulb Temperature Range {deltaC}
  64100,                                  ! Humidity Indicating Conditions at Maximum Dry-Bulb {BasedOnField A3}
  99075,                                  ! Barometric Pressure {Pa}
  3.5,                                    ! Wind Speed {m/s}
  240,                                    ! Wind Direction {deg}
  0,                                      ! Sky Clearness
  0,                                      ! Rain Indicator
  0,                                      ! Snow Indicator
  21,                                     ! Day of Month
  7,                                      ! Month
  SummerDesignDay,                        ! Day Type
  0,                                      ! Daylight Saving Time Indicator
  Enthalpy,                               ! Humidity Indicating Type
  ,                                       ! Humidity Indicating Day Schedule Name
  DefaultMultipliers,                     ! Dry-Bulb Temperature Range Modifier Type
  ,                                       ! Dry-Bulb Temperature Range Modifier Schedule Name
  ASHRAETau,                              ! Solar Model Indicator
  ,                                       ! Beam Solar Day Schedule Name
  ,                                       ! Diffuse Solar Day Schedule Name
  0.352,                                  ! ASHRAE Taub {dimensionless}
  2.545;                                  ! ASHRAE Taud {dimensionless}

OS:ComponentData,
  {c991cdf3-6a7a-4e77-be2c-027b9774055f}, ! Handle
  Component Data 1,                       ! Name
  {f55c032e-d3a8-4caa-81ae-301fceaa7863}, ! UUID
  {acb62ee0-843a-4f78-b4b2-f079880b87ba}, ! Version UUID
  1366306629,                             ! Creation Timestamp
  1366306629,                             ! Version Timestamp
  {88baa0e4-bb72-4615-a74c-f9012dcd95b4}; ! Name of Object 1

