
OS:Version,
  {be31c8fa-1cc2-486e-a93d-8fb324c2747c}, ! Handle
  0.9.3;                                  ! Version Identifier

OS:SizingPeriod:DesignDay,
  {bc8d8daf-cd62-4cf4-bd2a-d5c40888ffaa}, ! Handle
  MIAMI Ann Clg .4% Condns DB=>MWB,       ! Name
  33.2,                                   ! Maximum Dry-Bulb Temperature {C}
  6.7,                                    ! Daily Dry-Bulb Temperature Range {deltaC}
  25.3,                                   ! Humidity Indicating Conditions at Maximum Dry-Bulb {BasedOnField A3}
  101301,                                 ! Barometric Pressure {Pa}
  4.5,                                    ! Wind Speed {m/s}
  140,                                    ! Wind Direction {deg}
  0,                                      ! Sky Clearness
  0,                                      ! Rain Indicator
  0,                                      ! Snow Indicator
  21,                                     ! Day of Month
  7,                                      ! Month
  SummerDesignDay,                        ! Day Type
  0,                                      ! Daylight Saving Time Indicator
  Wetbulb,                                ! Humidity Indicating Type
  ,                                       ! Humidity Indicating Day Schedule Name
  DefaultMultipliers,                     ! Dry-Bulb Temperature Range Modifier Type
  ,                                       ! Dry-Bulb Temperature Range Modifier Schedule Name
  ASHRAETau,                              ! Solar Model Indicator
  ,                                       ! Beam Solar Day Schedule Name
  ,                                       ! Diffuse Solar Day Schedule Name
  0.528,                                  ! ASHRAE Taub {dimensionless}
  1.905;                                  ! ASHRAE Taud {dimensionless}

OS:ComponentData,
  {a52ba581-26d8-4e59-99df-943dec6d19eb}, ! Handle
  Component Data 1,                       ! Name
  {65c50c0c-67ad-4434-be5e-0260792ca475}, ! UUID
  {39b6c9b4-588e-4416-8142-5564ad916f1f}, ! Version UUID
  1366306860,                             ! Creation Timestamp
  1366306860,                             ! Version Timestamp
  {bc8d8daf-cd62-4cf4-bd2a-d5c40888ffaa}; ! Name of Object 1

