
OS:Version,
  {cfc3a277-f2b3-463c-b94b-ad2da1a31b81}, ! Handle
  0.9.3;                                  ! Version Identifier

OS:SizingPeriod:DesignDay,
  {9db775c0-7c62-409a-a1b9-f76f29f4267c}, ! Handle
  Mount Clemens Selfridge Fld Ann Clg 2% Condns WB=>MDB, ! Name
  27.3,                                   ! Maximum Dry-Bulb Temperature {C}
  11,                                     ! Daily Dry-Bulb Temperature Range {deltaC}
  22.9,                                   ! Humidity Indicating Conditions at Maximum Dry-Bulb {BasedOnField A3}
  99217,                                  ! Barometric Pressure {Pa}
  4.4,                                    ! Wind Speed {m/s}
  160,                                    ! Wind Direction {deg}
  0,                                      ! Sky Clearness
  0,                                      ! Rain Indicator
  0,                                      ! Snow Indicator
  21,                                     ! Day of Month
  7,                                      ! Month
  SummerDesignDay,                        ! Day Type
  0,                                      ! Daylight Saving Time Indicator
  Wetbulb,                                ! Humidity Indicating Type
  ,                                       ! Humidity Indicating Day Schedule Name
  DefaultMultipliers,                     ! Dry-Bulb Temperature Range Modifier Type
  ,                                       ! Dry-Bulb Temperature Range Modifier Schedule Name
  ASHRAETau,                              ! Solar Model Indicator
  ,                                       ! Beam Solar Day Schedule Name
  ,                                       ! Diffuse Solar Day Schedule Name
  0.482,                                  ! ASHRAE Taub {dimensionless}
  1.934;                                  ! ASHRAE Taud {dimensionless}

OS:ComponentData,
  {034db4d8-4fe4-42bd-bccc-99363fa3f0e4}, ! Handle
  Component Data 1,                       ! Name
  {7f093aac-8c44-4573-9995-bb697b45e39b}, ! UUID
  {e5843795-7259-405b-b5e8-a3bc00e09480}, ! Version UUID
  1366308069,                             ! Creation Timestamp
  1366308069,                             ! Version Timestamp
  {9db775c0-7c62-409a-a1b9-f76f29f4267c}; ! Name of Object 1

