
OS:Version,
  {dff547a2-30ce-4b59-a9a5-2f958962df77}, ! Handle
  0.9.3;                                  ! Version Identifier

OS:SizingPeriod:DesignDay,
  {1c2507e3-e072-4787-bf06-e6f8f2a341b0}, ! Handle
  REDMOND Ann Clg 2% Condns DP=>MDB,      ! Name
  19.4,                                   ! Maximum Dry-Bulb Temperature {C}
  20,                                     ! Daily Dry-Bulb Temperature Range {deltaC}
  10.7,                                   ! Humidity Indicating Conditions at Maximum Dry-Bulb {BasedOnField A3}
  90531,                                  ! Barometric Pressure {Pa}
  4.7,                                    ! Wind Speed {m/s}
  350,                                    ! Wind Direction {deg}
  0,                                      ! Sky Clearness
  0,                                      ! Rain Indicator
  0,                                      ! Snow Indicator
  21,                                     ! Day of Month
  7,                                      ! Month
  SummerDesignDay,                        ! Day Type
  0,                                      ! Daylight Saving Time Indicator
  Dewpoint,                               ! Humidity Indicating Type
  ,                                       ! Humidity Indicating Day Schedule Name
  DefaultMultipliers,                     ! Dry-Bulb Temperature Range Modifier Type
  ,                                       ! Dry-Bulb Temperature Range Modifier Schedule Name
  ASHRAETau,                              ! Solar Model Indicator
  ,                                       ! Beam Solar Day Schedule Name
  ,                                       ! Diffuse Solar Day Schedule Name
  0.355,                                  ! ASHRAE Taub {dimensionless}
  2.422;                                  ! ASHRAE Taud {dimensionless}

OS:ComponentData,
  {a4780332-3b2d-484f-bb8f-76c470992f36}, ! Handle
  Component Data 1,                       ! Name
  {898e7397-4562-41d5-b4c0-f1687384f591}, ! UUID
  {94677cdd-adac-4d71-9124-de0c9145b5af}, ! Version UUID
  1366310103,                             ! Creation Timestamp
  1366310103,                             ! Version Timestamp
  {1c2507e3-e072-4787-bf06-e6f8f2a341b0}; ! Name of Object 1

