
OS:Version,
  {2245be4f-33c1-4071-8373-c8a245cc920d}, ! Handle
  0.9.3;                                  ! Version Identifier

OS:SizingPeriod:DesignDay,
  {b1de3ef6-73b6-477c-a168-325143440bd0}, ! Handle
  SANTA_MARIA Ann Clg 2% Condns Enth=>MDB, ! Name
  23.4,                                   ! Maximum Dry-Bulb Temperature {C}
  10.2,                                   ! Daily Dry-Bulb Temperature Range {deltaC}
  49400,                                  ! Humidity Indicating Conditions at Maximum Dry-Bulb {BasedOnField A3}
  100463,                                 ! Barometric Pressure {Pa}
  4.6,                                    ! Wind Speed {m/s}
  300,                                    ! Wind Direction {deg}
  0,                                      ! Sky Clearness
  0,                                      ! Rain Indicator
  0,                                      ! Snow Indicator
  21,                                     ! Day of Month
  8,                                      ! Month
  SummerDesignDay,                        ! Day Type
  0,                                      ! Daylight Saving Time Indicator
  Enthalpy,                               ! Humidity Indicating Type
  ,                                       ! Humidity Indicating Day Schedule Name
  DefaultMultipliers,                     ! Dry-Bulb Temperature Range Modifier Type
  ,                                       ! Dry-Bulb Temperature Range Modifier Schedule Name
  ASHRAETau,                              ! Solar Model Indicator
  ,                                       ! Beam Solar Day Schedule Name
  ,                                       ! Diffuse Solar Day Schedule Name
  0.371,                                  ! ASHRAE Taub {dimensionless}
  2.414;                                  ! ASHRAE Taud {dimensionless}

OS:ComponentData,
  {06a5f07a-700f-4a0a-a5ae-667ceed58528}, ! Handle
  Component Data 1,                       ! Name
  {02d2c3e1-fa25-4a8a-a212-a949ec45a9c6}, ! UUID
  {ce171541-c2c4-435c-a78a-6ee346ed7140}, ! Version UUID
  1366306611,                             ! Creation Timestamp
  1366306611,                             ! Version Timestamp
  {b1de3ef6-73b6-477c-a168-325143440bd0}; ! Name of Object 1

