
OS:Version,
  {45788201-6e4a-4905-9aa0-67c41be50590}, ! Handle
  0.9.3;                                  ! Version Identifier

OS:SizingPeriod:DesignDay,
  {82818041-7052-4980-a247-495d3d63166b}, ! Handle
  Mountain View/Moffet N Ann Htg Wind 99% Condns WS=>MCDB, ! Name
  12.3,                                   ! Maximum Dry-Bulb Temperature {C}
  0,                                      ! Daily Dry-Bulb Temperature Range {deltaC}
  12.3,                                   ! Humidity Indicating Conditions at Maximum Dry-Bulb {BasedOnField A3}
  101181,                                 ! Barometric Pressure {Pa}
  8.5,                                    ! Wind Speed {m/s}
  270,                                    ! Wind Direction {deg}
  0,                                      ! Sky Clearness
  0,                                      ! Rain Indicator
  0,                                      ! Snow Indicator
  21,                                     ! Day of Month
  12,                                     ! Month
  WinterDesignDay,                        ! Day Type
  0,                                      ! Daylight Saving Time Indicator
  Wetbulb,                                ! Humidity Indicating Type
  ,                                       ! Humidity Indicating Day Schedule Name
  DefaultMultipliers,                     ! Dry-Bulb Temperature Range Modifier Type
  ,                                       ! Dry-Bulb Temperature Range Modifier Schedule Name
  ASHRAEClearSky;                         ! Solar Model Indicator

OS:ComponentData,
  {ed20377d-3a2b-4686-a8f8-a996eff64e47}, ! Handle
  Component Data 1,                       ! Name
  {62dd3083-f1e0-408e-8706-7a0a5abda17a}, ! UUID
  {5ca1d2df-f5ac-46ad-811e-89629ea69069}, ! Version UUID
  1366306505,                             ! Creation Timestamp
  1366306505,                             ! Version Timestamp
  {82818041-7052-4980-a247-495d3d63166b}; ! Name of Object 1

