
OS:Version,
  {6cee3ea1-487e-4d05-ab9b-8fe6ee87876b}, ! Handle
  0.9.3;                                  ! Version Identifier

OS:SizingPeriod:DesignDay,
  {6f4d3f85-e8ec-49f5-b848-4053ce2b2072}, ! Handle
  Patuxent River Nas Ann Hum_n 99% Condns DP=>MCDB, ! Name
  -4.7,                                   ! Maximum Dry-Bulb Temperature {C}
  0,                                      ! Daily Dry-Bulb Temperature Range {deltaC}
  -15.1,                                  ! Humidity Indicating Conditions at Maximum Dry-Bulb {BasedOnField A3}
  101157,                                 ! Barometric Pressure {Pa}
  4,                                      ! Wind Speed {m/s}
  350,                                    ! Wind Direction {deg}
  0,                                      ! Sky Clearness
  0,                                      ! Rain Indicator
  0,                                      ! Snow Indicator
  21,                                     ! Day of Month
  1,                                      ! Month
  WinterDesignDay,                        ! Day Type
  0,                                      ! Daylight Saving Time Indicator
  Dewpoint,                               ! Humidity Indicating Type
  ,                                       ! Humidity Indicating Day Schedule Name
  DefaultMultipliers,                     ! Dry-Bulb Temperature Range Modifier Type
  ,                                       ! Dry-Bulb Temperature Range Modifier Schedule Name
  ASHRAEClearSky;                         ! Solar Model Indicator

OS:ComponentData,
  {2168c705-231f-4a14-8192-2467b9dc24f2}, ! Handle
  Component Data 1,                       ! Name
  {ed1bf549-fdf0-47d3-9330-abe70a61b7fd}, ! UUID
  {a017d94b-8e11-48d8-86e3-a6500e25036c}, ! Version UUID
  1366307857,                             ! Creation Timestamp
  1366307857,                             ! Version Timestamp
  {6f4d3f85-e8ec-49f5-b848-4053ce2b2072}; ! Name of Object 1

