
OS:Version,
  {a422195c-1cd2-4cc0-a962-bc0b45bf63f6}, ! Handle
  0.9.3;                                  ! Version Identifier

OS:SizingPeriod:DesignDay,
  {71f35a22-84dc-4752-8011-278017929c9d}, ! Handle
  Nashville International Ap Ann Clg 1% Condns DP=>MDB, ! Name
  27.6,                                   ! Maximum Dry-Bulb Temperature {C}
  10.2,                                   ! Daily Dry-Bulb Temperature Range {deltaC}
  23.4,                                   ! Humidity Indicating Conditions at Maximum Dry-Bulb {BasedOnField A3}
  99217,                                  ! Barometric Pressure {Pa}
  3.5,                                    ! Wind Speed {m/s}
  230,                                    ! Wind Direction {deg}
  0,                                      ! Sky Clearness
  0,                                      ! Rain Indicator
  0,                                      ! Snow Indicator
  21,                                     ! Day of Month
  7,                                      ! Month
  SummerDesignDay,                        ! Day Type
  0,                                      ! Daylight Saving Time Indicator
  Dewpoint,                               ! Humidity Indicating Type
  ,                                       ! Humidity Indicating Day Schedule Name
  DefaultMultipliers,                     ! Dry-Bulb Temperature Range Modifier Type
  ,                                       ! Dry-Bulb Temperature Range Modifier Schedule Name
  ASHRAETau,                              ! Solar Model Indicator
  ,                                       ! Beam Solar Day Schedule Name
  ,                                       ! Diffuse Solar Day Schedule Name
  0.524,                                  ! ASHRAE Taub {dimensionless}
  1.855;                                  ! ASHRAE Taud {dimensionless}

OS:ComponentData,
  {6bd50cea-26d1-4291-a420-819e4c95557d}, ! Handle
  Component Data 1,                       ! Name
  {64b24312-2004-481c-b831-f365e93f9549}, ! UUID
  {1b1036f2-510e-4289-be90-8b5f029b5472}, ! Version UUID
  1366310543,                             ! Creation Timestamp
  1366310543,                             ! Version Timestamp
  {71f35a22-84dc-4752-8011-278017929c9d}; ! Name of Object 1

