
OS:Version,
  {ec8acb0a-d414-4879-b72f-4e67c5426f74}, ! Handle
  0.9.3;                                  ! Version Identifier

OS:SizingPeriod:DesignDay,
  {3199bfa0-3716-4d08-8ec2-00bc94d3069d}, ! Handle
  MINNEAPOLIS Ann Hum_n 99.6% Condns DP=>MCDB, ! Name
  -24.6,                                  ! Maximum Dry-Bulb Temperature {C}
  0,                                      ! Daily Dry-Bulb Temperature Range {deltaC}
  -30.5,                                  ! Humidity Indicating Conditions at Maximum Dry-Bulb {BasedOnField A3}
  98299,                                  ! Barometric Pressure {Pa}
  3.8,                                    ! Wind Speed {m/s}
  300,                                    ! Wind Direction {deg}
  0,                                      ! Sky Clearness
  0,                                      ! Rain Indicator
  0,                                      ! Snow Indicator
  21,                                     ! Day of Month
  1,                                      ! Month
  WinterDesignDay,                        ! Day Type
  0,                                      ! Daylight Saving Time Indicator
  Dewpoint,                               ! Humidity Indicating Type
  ,                                       ! Humidity Indicating Day Schedule Name
  DefaultMultipliers,                     ! Dry-Bulb Temperature Range Modifier Type
  ,                                       ! Dry-Bulb Temperature Range Modifier Schedule Name
  ASHRAEClearSky;                         ! Solar Model Indicator

OS:ComponentData,
  {36869d8d-f0e0-41e0-90e9-698c1ca6d080}, ! Handle
  Component Data 1,                       ! Name
  {2cd08736-ee31-45f1-a250-3db8a6345805}, ! UUID
  {721ae3ef-7030-40d0-940c-0a3b4eb49b81}, ! Version UUID
  1366308311,                             ! Creation Timestamp
  1366308311,                             ! Version Timestamp
  {3199bfa0-3716-4d08-8ec2-00bc94d3069d}; ! Name of Object 1

