
OS:Version,
  {7964b5b8-26a4-48b1-a78f-c754c3194c9d}, ! Handle
  0.9.3;                                  ! Version Identifier

OS:SizingPeriod:DesignDay,
  {b19bd412-7ac1-43e3-8da4-fffeb618045d}, ! Handle
  Pasco Ann Htg Wind 99% Condns WS=>MCDB, ! Name
  7.9,                                    ! Maximum Dry-Bulb Temperature {C}
  0,                                      ! Daily Dry-Bulb Temperature Range {deltaC}
  7.9,                                    ! Humidity Indicating Conditions at Maximum Dry-Bulb {BasedOnField A3}
  99702,                                  ! Barometric Pressure {Pa}
  12.2,                                   ! Wind Speed {m/s}
  310,                                    ! Wind Direction {deg}
  0,                                      ! Sky Clearness
  0,                                      ! Rain Indicator
  0,                                      ! Snow Indicator
  21,                                     ! Day of Month
  12,                                     ! Month
  WinterDesignDay,                        ! Day Type
  0,                                      ! Daylight Saving Time Indicator
  Wetbulb,                                ! Humidity Indicating Type
  ,                                       ! Humidity Indicating Day Schedule Name
  DefaultMultipliers,                     ! Dry-Bulb Temperature Range Modifier Type
  ,                                       ! Dry-Bulb Temperature Range Modifier Schedule Name
  ASHRAEClearSky;                         ! Solar Model Indicator

OS:ComponentData,
  {da753d5e-f972-49a9-ae93-176d74a64ba1}, ! Handle
  Component Data 1,                       ! Name
  {cef5dbd4-629e-4598-a3bc-75f49df1db2f}, ! UUID
  {a66148c7-e708-4ace-a558-1960ff511b22}, ! Version UUID
  1366311318,                             ! Creation Timestamp
  1366311318,                             ! Version Timestamp
  {b19bd412-7ac1-43e3-8da4-fffeb618045d}; ! Name of Object 1

