
OS:Version,
  {4078d5e1-dc42-46dc-bddd-a385eef23935}, ! Handle
  0.9.3;                                  ! Version Identifier

OS:SizingPeriod:DesignDay,
  {30b0aa9d-02b0-465a-8e39-ec056e382b46}, ! Handle
  Pipestone  Awos Ann Clg 2% Condns DP=>MDB, ! Name
  26.1,                                   ! Maximum Dry-Bulb Temperature {C}
  10.8,                                   ! Daily Dry-Bulb Temperature Range {deltaC}
  22.4,                                   ! Humidity Indicating Conditions at Maximum Dry-Bulb {BasedOnField A3}
  95129,                                  ! Barometric Pressure {Pa}
  5.7,                                    ! Wind Speed {m/s}
  190,                                    ! Wind Direction {deg}
  0,                                      ! Sky Clearness
  0,                                      ! Rain Indicator
  0,                                      ! Snow Indicator
  21,                                     ! Day of Month
  7,                                      ! Month
  SummerDesignDay,                        ! Day Type
  0,                                      ! Daylight Saving Time Indicator
  Dewpoint,                               ! Humidity Indicating Type
  ,                                       ! Humidity Indicating Day Schedule Name
  DefaultMultipliers,                     ! Dry-Bulb Temperature Range Modifier Type
  ,                                       ! Dry-Bulb Temperature Range Modifier Schedule Name
  ASHRAETau,                              ! Solar Model Indicator
  ,                                       ! Beam Solar Day Schedule Name
  ,                                       ! Diffuse Solar Day Schedule Name
  0.387,                                  ! ASHRAE Taub {dimensionless}
  2.294;                                  ! ASHRAE Taud {dimensionless}

OS:ComponentData,
  {fcb5b5cb-a782-4484-a80b-900e55789d33}, ! Handle
  Component Data 1,                       ! Name
  {3e3dcb56-2329-437c-919b-f16a08818ff4}, ! UUID
  {4fb7af34-ee92-4310-a4d4-8fa758c98b97}, ! Version UUID
  1366308366,                             ! Creation Timestamp
  1366308366,                             ! Version Timestamp
  {30b0aa9d-02b0-465a-8e39-ec056e382b46}; ! Name of Object 1

