
OS:Version,
  {361e39a6-604d-4d12-b40a-2d6e27e09493}, ! Handle
  0.9.3;                                  ! Version Identifier

OS:SizingPeriod:DesignDay,
  {ad9390a9-011d-427e-9a57-21e62b8acbc5}, ! Handle
  Spokane/Fairchild AFB Ann Clg 1% Condns Enth=>MDB, ! Name
  29,                                     ! Maximum Dry-Bulb Temperature {C}
  14.6,                                   ! Daily Dry-Bulb Temperature Range {deltaC}
  51800,                                  ! Humidity Indicating Conditions at Maximum Dry-Bulb {BasedOnField A3}
  92634,                                  ! Barometric Pressure {Pa}
  4.1,                                    ! Wind Speed {m/s}
  240,                                    ! Wind Direction {deg}
  0,                                      ! Sky Clearness
  0,                                      ! Rain Indicator
  0,                                      ! Snow Indicator
  21,                                     ! Day of Month
  7,                                      ! Month
  SummerDesignDay,                        ! Day Type
  0,                                      ! Daylight Saving Time Indicator
  Enthalpy,                               ! Humidity Indicating Type
  ,                                       ! Humidity Indicating Day Schedule Name
  DefaultMultipliers,                     ! Dry-Bulb Temperature Range Modifier Type
  ,                                       ! Dry-Bulb Temperature Range Modifier Schedule Name
  ASHRAETau,                              ! Solar Model Indicator
  ,                                       ! Beam Solar Day Schedule Name
  ,                                       ! Diffuse Solar Day Schedule Name
  0.354,                                  ! ASHRAE Taub {dimensionless}
  2.385;                                  ! ASHRAE Taud {dimensionless}

OS:ComponentData,
  {455282bf-d2ce-4baf-a7aa-5e7a47815c55}, ! Handle
  Component Data 1,                       ! Name
  {490808af-de6c-4394-8960-e8624b074084}, ! UUID
  {9ac0241a-6d59-4b72-852f-152d86b5ba82}, ! Version UUID
  1366311392,                             ! Creation Timestamp
  1366311392,                             ! Version Timestamp
  {ad9390a9-011d-427e-9a57-21e62b8acbc5}; ! Name of Object 1

