
OS:Version,
  {e40c1252-a276-4255-9687-4eb0c5386bea}, ! Handle
  0.9.3;                                  ! Version Identifier

OS:SizingPeriod:DesignDay,
  {f5f29090-da6b-4e3a-9c59-16431b12d2b8}, ! Handle
  Rapid City Ann Clg 1% Condns Enth=>MDB, ! Name
  29.2,                                   ! Maximum Dry-Bulb Temperature {C}
  14.8,                                   ! Daily Dry-Bulb Temperature Range {deltaC}
  64100,                                  ! Humidity Indicating Conditions at Maximum Dry-Bulb {BasedOnField A3}
  90246,                                  ! Barometric Pressure {Pa}
  6,                                      ! Wind Speed {m/s}
  180,                                    ! Wind Direction {deg}
  0,                                      ! Sky Clearness
  0,                                      ! Rain Indicator
  0,                                      ! Snow Indicator
  21,                                     ! Day of Month
  7,                                      ! Month
  SummerDesignDay,                        ! Day Type
  0,                                      ! Daylight Saving Time Indicator
  Enthalpy,                               ! Humidity Indicating Type
  ,                                       ! Humidity Indicating Day Schedule Name
  DefaultMultipliers,                     ! Dry-Bulb Temperature Range Modifier Type
  ,                                       ! Dry-Bulb Temperature Range Modifier Schedule Name
  ASHRAETau,                              ! Solar Model Indicator
  ,                                       ! Beam Solar Day Schedule Name
  ,                                       ! Diffuse Solar Day Schedule Name
  0.41,                                   ! ASHRAE Taub {dimensionless}
  2.134;                                  ! ASHRAE Taud {dimensionless}

OS:ComponentData,
  {3e9f34d9-c9d2-4e36-ad9d-bdee542529d8}, ! Handle
  Component Data 1,                       ! Name
  {a9e2cc29-5753-4c5e-a00d-7699be53d3a3}, ! UUID
  {e4c62775-6981-4a86-893e-96b8f2aba27c}, ! Version UUID
  1366310447,                             ! Creation Timestamp
  1366310447,                             ! Version Timestamp
  {f5f29090-da6b-4e3a-9c59-16431b12d2b8}; ! Name of Object 1

