
OS:Version,
  {dbc27f8e-049a-4a73-888b-ea7d20ef44a8}, ! Handle
  0.9.3;                                  ! Version Identifier

OS:SizingPeriod:DesignDay,
  {9bab8d67-3ed3-448f-a223-e55918e79dae}, ! Handle
  Pensacola Forest Sherman Nas Ann Clg .4% Condns WB=>MDB, ! Name
  31.3,                                   ! Maximum Dry-Bulb Temperature {C}
  8.3,                                    ! Daily Dry-Bulb Temperature Range {deltaC}
  27.7,                                   ! Humidity Indicating Conditions at Maximum Dry-Bulb {BasedOnField A3}
  101205,                                 ! Barometric Pressure {Pa}
  4.5,                                    ! Wind Speed {m/s}
  210,                                    ! Wind Direction {deg}
  0,                                      ! Sky Clearness
  0,                                      ! Rain Indicator
  0,                                      ! Snow Indicator
  21,                                     ! Day of Month
  7,                                      ! Month
  SummerDesignDay,                        ! Day Type
  0,                                      ! Daylight Saving Time Indicator
  Wetbulb,                                ! Humidity Indicating Type
  ,                                       ! Humidity Indicating Day Schedule Name
  DefaultMultipliers,                     ! Dry-Bulb Temperature Range Modifier Type
  ,                                       ! Dry-Bulb Temperature Range Modifier Schedule Name
  ASHRAETau,                              ! Solar Model Indicator
  ,                                       ! Beam Solar Day Schedule Name
  ,                                       ! Diffuse Solar Day Schedule Name
  0.531,                                  ! ASHRAE Taub {dimensionless}
  1.898;                                  ! ASHRAE Taud {dimensionless}

OS:ComponentData,
  {70fee788-8d2f-4624-bee0-c6f48467c2e5}, ! Handle
  Component Data 1,                       ! Name
  {f6872b15-cfb8-43d3-82f6-32ac4d90fba9}, ! UUID
  {e941c8cc-887b-42cd-925d-38213127432c}, ! Version UUID
  1366306902,                             ! Creation Timestamp
  1366306902,                             ! Version Timestamp
  {9bab8d67-3ed3-448f-a223-e55918e79dae}; ! Name of Object 1

