
OS:Version,
  {029361c1-2d71-40c2-a646-c2586a14ef3e}, ! Handle
  0.9.3;                                  ! Version Identifier

OS:SizingPeriod:DesignDay,
  {a267e1d0-d2ec-4c04-b921-bde448bb834f}, ! Handle
  Sioux City Ann Hum_n 99.6% Condns DP=>MCDB, ! Name
  -22.3,                                  ! Maximum Dry-Bulb Temperature {C}
  0,                                      ! Daily Dry-Bulb Temperature Range {deltaC}
  -27.1,                                  ! Humidity Indicating Conditions at Maximum Dry-Bulb {BasedOnField A3}
  97353,                                  ! Barometric Pressure {Pa}
  5.2,                                    ! Wind Speed {m/s}
  320,                                    ! Wind Direction {deg}
  0,                                      ! Sky Clearness
  0,                                      ! Rain Indicator
  0,                                      ! Snow Indicator
  21,                                     ! Day of Month
  1,                                      ! Month
  WinterDesignDay,                        ! Day Type
  0,                                      ! Daylight Saving Time Indicator
  Dewpoint,                               ! Humidity Indicating Type
  ,                                       ! Humidity Indicating Day Schedule Name
  DefaultMultipliers,                     ! Dry-Bulb Temperature Range Modifier Type
  ,                                       ! Dry-Bulb Temperature Range Modifier Schedule Name
  ASHRAEClearSky;                         ! Solar Model Indicator

OS:ComponentData,
  {109369f4-f36b-445c-aba8-5b110c737a6e}, ! Handle
  Component Data 1,                       ! Name
  {3961cd61-b375-4d15-8124-1be2f4a932f4}, ! UUID
  {2365c9ee-4717-44f2-9294-0d768a7c074d}, ! Version UUID
  1366307232,                             ! Creation Timestamp
  1366307232,                             ! Version Timestamp
  {a267e1d0-d2ec-4c04-b921-bde448bb834f}; ! Name of Object 1

