
OS:Version,
  {6d18033a-805d-425c-b93f-0df77cefaf0d}, ! Handle
  0.9.3;                                  ! Version Identifier

OS:SizingPeriod:DesignDay,
  {9aa44b59-e240-4cf0-85d3-a76d2672c151}, ! Handle
  Sioux City Ann Htg Wind 99.6% Condns WS=>MCDB, ! Name
  -9,                                     ! Maximum Dry-Bulb Temperature {C}
  0,                                      ! Daily Dry-Bulb Temperature Range {deltaC}
  -9,                                     ! Humidity Indicating Conditions at Maximum Dry-Bulb {BasedOnField A3}
  97353,                                  ! Barometric Pressure {Pa}
  16.2,                                   ! Wind Speed {m/s}
  320,                                    ! Wind Direction {deg}
  0,                                      ! Sky Clearness
  0,                                      ! Rain Indicator
  0,                                      ! Snow Indicator
  21,                                     ! Day of Month
  1,                                      ! Month
  WinterDesignDay,                        ! Day Type
  0,                                      ! Daylight Saving Time Indicator
  Wetbulb,                                ! Humidity Indicating Type
  ,                                       ! Humidity Indicating Day Schedule Name
  DefaultMultipliers,                     ! Dry-Bulb Temperature Range Modifier Type
  ,                                       ! Dry-Bulb Temperature Range Modifier Schedule Name
  ASHRAEClearSky;                         ! Solar Model Indicator

OS:ComponentData,
  {7840ace5-6505-4eb0-85f6-5b38e387c4d8}, ! Handle
  Component Data 1,                       ! Name
  {907af072-2eb6-49b0-90ec-ad32d205f36e}, ! UUID
  {c9949ffc-9ffa-4b2c-8c17-291fc84aa959}, ! Version UUID
  1366307232,                             ! Creation Timestamp
  1366307232,                             ! Version Timestamp
  {9aa44b59-e240-4cf0-85d3-a76d2672c151}; ! Name of Object 1

