
OS:Version,
  {d5109559-aa86-4deb-88fe-daf6c600e7f6}, ! Handle
  0.9.3;                                  ! Version Identifier

OS:SizingPeriod:DesignDay,
  {33f7f48d-fa07-4a65-b887-f328eecef1cc}, ! Handle
  San Antonio/Randolph A Ann Htg 99% Condns DB, ! Name
  -0.2,                                   ! Maximum Dry-Bulb Temperature {C}
  0,                                      ! Daily Dry-Bulb Temperature Range {deltaC}
  -0.2,                                   ! Humidity Indicating Conditions at Maximum Dry-Bulb {BasedOnField A3}
  98569,                                  ! Barometric Pressure {Pa}
  3.7,                                    ! Wind Speed {m/s}
  10,                                     ! Wind Direction {deg}
  0,                                      ! Sky Clearness
  0,                                      ! Rain Indicator
  0,                                      ! Snow Indicator
  21,                                     ! Day of Month
  1,                                      ! Month
  WinterDesignDay,                        ! Day Type
  0,                                      ! Daylight Saving Time Indicator
  Wetbulb,                                ! Humidity Indicating Type
  ,                                       ! Humidity Indicating Day Schedule Name
  DefaultMultipliers,                     ! Dry-Bulb Temperature Range Modifier Type
  ,                                       ! Dry-Bulb Temperature Range Modifier Schedule Name
  ASHRAEClearSky;                         ! Solar Model Indicator

OS:ComponentData,
  {cb718f61-8ee3-4b56-b950-784570880127}, ! Handle
  Component Data 1,                       ! Name
  {263c3999-9756-4838-8377-9b8d27659fbd}, ! UUID
  {a4392e2f-bf59-46e4-8238-a22009620f18}, ! Version UUID
  1366310893,                             ! Creation Timestamp
  1366310893,                             ! Version Timestamp
  {33f7f48d-fa07-4a65-b887-f328eecef1cc}; ! Name of Object 1

