
OS:Version,
  {ac670afe-f575-4db4-be38-1794f05db76c}, ! Handle
  0.9.3;                                  ! Version Identifier

OS:SizingPeriod:DesignDay,
  {42365590-c97b-4d9f-957d-ba4ec3ab7950}, ! Handle
  PHILADELPHIA Ann Htg 99% Condns DB,     ! Name
  -9.8,                                   ! Maximum Dry-Bulb Temperature {C}
  0,                                      ! Daily Dry-Bulb Temperature Range {deltaC}
  -9.8,                                   ! Humidity Indicating Conditions at Maximum Dry-Bulb {BasedOnField A3}
  101217,                                 ! Barometric Pressure {Pa}
  2.7,                                    ! Wind Speed {m/s}
  300,                                    ! Wind Direction {deg}
  0,                                      ! Sky Clearness
  0,                                      ! Rain Indicator
  0,                                      ! Snow Indicator
  21,                                     ! Day of Month
  1,                                      ! Month
  WinterDesignDay,                        ! Day Type
  0,                                      ! Daylight Saving Time Indicator
  Wetbulb,                                ! Humidity Indicating Type
  ,                                       ! Humidity Indicating Day Schedule Name
  DefaultMultipliers,                     ! Dry-Bulb Temperature Range Modifier Type
  ,                                       ! Dry-Bulb Temperature Range Modifier Schedule Name
  ASHRAEClearSky;                         ! Solar Model Indicator

OS:ComponentData,
  {587f8646-3661-41fd-aeb5-d742460d5883}, ! Handle
  Component Data 1,                       ! Name
  {447f141c-7598-4d67-a045-c0e3d44252f2}, ! UUID
  {b9987c0f-a0fc-4bec-8ba2-4116169d73dc}, ! Version UUID
  1366310213,                             ! Creation Timestamp
  1366310213,                             ! Version Timestamp
  {42365590-c97b-4d9f-957d-ba4ec3ab7950}; ! Name of Object 1

