
OS:Version,
  {7f1f23bd-ec15-447b-8fff-610dc1213842}, ! Handle
  0.9.3;                                  ! Version Identifier

OS:SizingPeriod:DesignDay,
  {12391b69-e578-408c-86df-4cbcbd2558b3}, ! Handle
  New River Mcaf Ann Clg 2% Condns WB=>MDB, ! Name
  30.1,                                   ! Maximum Dry-Bulb Temperature {C}
  9.1,                                    ! Daily Dry-Bulb Temperature Range {deltaC}
  25.7,                                   ! Humidity Indicating Conditions at Maximum Dry-Bulb {BasedOnField A3}
  101265,                                 ! Barometric Pressure {Pa}
  3.4,                                    ! Wind Speed {m/s}
  240,                                    ! Wind Direction {deg}
  0,                                      ! Sky Clearness
  0,                                      ! Rain Indicator
  0,                                      ! Snow Indicator
  21,                                     ! Day of Month
  7,                                      ! Month
  SummerDesignDay,                        ! Day Type
  0,                                      ! Daylight Saving Time Indicator
  Wetbulb,                                ! Humidity Indicating Type
  ,                                       ! Humidity Indicating Day Schedule Name
  DefaultMultipliers,                     ! Dry-Bulb Temperature Range Modifier Type
  ,                                       ! Dry-Bulb Temperature Range Modifier Schedule Name
  ASHRAETau,                              ! Solar Model Indicator
  ,                                       ! Beam Solar Day Schedule Name
  ,                                       ! Diffuse Solar Day Schedule Name
  0.594,                                  ! ASHRAE Taub {dimensionless}
  1.709;                                  ! ASHRAE Taud {dimensionless}

OS:ComponentData,
  {3855b398-46f8-4f3f-90ae-0082baf106db}, ! Handle
  Component Data 1,                       ! Name
  {d4dbaa92-bc0c-4ad8-8399-da948419f5e9}, ! UUID
  {b995d5ea-9cc5-4fee-98f1-f046112ba19d}, ! Version UUID
  1366308957,                             ! Creation Timestamp
  1366308957,                             ! Version Timestamp
  {12391b69-e578-408c-86df-4cbcbd2558b3}; ! Name of Object 1

