
OS:Version,
  {e4b08e72-caca-4533-af6c-0dc9b00d7aa9}, ! Handle
  0.9.3;                                  ! Version Identifier

OS:SizingPeriod:DesignDay,
  {4e6b0989-6595-4180-9aec-901c7bb6824d}, ! Handle
  Yuma Mcas Ann Clg .4% Condns DB=>MWB,   ! Name
  43.8,                                   ! Maximum Dry-Bulb Temperature {C}
  13.1,                                   ! Daily Dry-Bulb Temperature Range {deltaC}
  23.2,                                   ! Humidity Indicating Conditions at Maximum Dry-Bulb {BasedOnField A3}
  100547,                                 ! Barometric Pressure {Pa}
  3.4,                                    ! Wind Speed {m/s}
  180,                                    ! Wind Direction {deg}
  0,                                      ! Sky Clearness
  0,                                      ! Rain Indicator
  0,                                      ! Snow Indicator
  21,                                     ! Day of Month
  7,                                      ! Month
  SummerDesignDay,                        ! Day Type
  0,                                      ! Daylight Saving Time Indicator
  Wetbulb,                                ! Humidity Indicating Type
  ,                                       ! Humidity Indicating Day Schedule Name
  DefaultMultipliers,                     ! Dry-Bulb Temperature Range Modifier Type
  ,                                       ! Dry-Bulb Temperature Range Modifier Schedule Name
  ASHRAETau,                              ! Solar Model Indicator
  ,                                       ! Beam Solar Day Schedule Name
  ,                                       ! Diffuse Solar Day Schedule Name
  0.533,                                  ! ASHRAE Taub {dimensionless}
  1.765;                                  ! ASHRAE Taud {dimensionless}

OS:ComponentData,
  {c4c64855-d2ff-48a4-b117-e47bf4442cb3}, ! Handle
  Component Data 1,                       ! Name
  {b3bee5ff-f827-46eb-8b6d-183edda86a39}, ! UUID
  {30fc67d7-4d4c-416a-92b2-e612a6374d3b}, ! Version UUID
  1366306341,                             ! Creation Timestamp
  1366306341,                             ! Version Timestamp
  {4e6b0989-6595-4180-9aec-901c7bb6824d}; ! Name of Object 1

