
OS:Version,
  {502f2463-f2b2-44d0-9f28-4ea6df86f392}, ! Handle
  0.9.3;                                  ! Version Identifier

OS:SizingPeriod:DesignDay,
  {ca799984-0e1f-419d-8aec-ef0d98565594}, ! Handle
  Ohio State Universi Ann Htg Wind 99.6% Condns WS=>MCDB, ! Name
  2,                                      ! Maximum Dry-Bulb Temperature {C}
  0,                                      ! Daily Dry-Bulb Temperature Range {deltaC}
  2,                                      ! Humidity Indicating Conditions at Maximum Dry-Bulb {BasedOnField A3}
  97971,                                  ! Barometric Pressure {Pa}
  10.9,                                   ! Wind Speed {m/s}
  260,                                    ! Wind Direction {deg}
  0,                                      ! Sky Clearness
  0,                                      ! Rain Indicator
  0,                                      ! Snow Indicator
  21,                                     ! Day of Month
  1,                                      ! Month
  WinterDesignDay,                        ! Day Type
  0,                                      ! Daylight Saving Time Indicator
  Wetbulb,                                ! Humidity Indicating Type
  ,                                       ! Humidity Indicating Day Schedule Name
  DefaultMultipliers,                     ! Dry-Bulb Temperature Range Modifier Type
  ,                                       ! Dry-Bulb Temperature Range Modifier Schedule Name
  ASHRAEClearSky;                         ! Solar Model Indicator

OS:ComponentData,
  {d2bd92c7-fc00-4828-9e38-363067ad13af}, ! Handle
  Component Data 1,                       ! Name
  {5d40afb6-08a6-4008-a986-94cd054fc148}, ! UUID
  {ebced3b0-49b3-433c-b91a-15ad2bd2c0ca}, ! Version UUID
  1366309840,                             ! Creation Timestamp
  1366309840,                             ! Version Timestamp
  {ca799984-0e1f-419d-8aec-ef0d98565594}; ! Name of Object 1

