
OS:Version,
  {cbede13a-3602-46b9-83ee-5df85b83820a}, ! Handle
  0.9.3;                                  ! Version Identifier

OS:SizingPeriod:DesignDay,
  {1cd1bd7a-b5a5-48e4-848e-fd096a3d5bb5}, ! Handle
  Nasa Shuttle Fclty Ann Clg .4% Condns DP=>MDB, ! Name
  28.8,                                   ! Maximum Dry-Bulb Temperature {C}
  8.7,                                    ! Daily Dry-Bulb Temperature Range {deltaC}
  26.1,                                   ! Humidity Indicating Conditions at Maximum Dry-Bulb {BasedOnField A3}
  101289,                                 ! Barometric Pressure {Pa}
  3.5,                                    ! Wind Speed {m/s}
  240,                                    ! Wind Direction {deg}
  0,                                      ! Sky Clearness
  0,                                      ! Rain Indicator
  0,                                      ! Snow Indicator
  21,                                     ! Day of Month
  7,                                      ! Month
  SummerDesignDay,                        ! Day Type
  0,                                      ! Daylight Saving Time Indicator
  Dewpoint,                               ! Humidity Indicating Type
  ,                                       ! Humidity Indicating Day Schedule Name
  DefaultMultipliers,                     ! Dry-Bulb Temperature Range Modifier Type
  ,                                       ! Dry-Bulb Temperature Range Modifier Schedule Name
  ASHRAETau,                              ! Solar Model Indicator
  ,                                       ! Beam Solar Day Schedule Name
  ,                                       ! Diffuse Solar Day Schedule Name
  0.504,                                  ! ASHRAE Taub {dimensionless}
  1.981;                                  ! ASHRAE Taud {dimensionless}

OS:ComponentData,
  {494482af-e1a1-4296-a9d7-2a27671cba90}, ! Handle
  Component Data 1,                       ! Name
  {fb744a59-6563-474e-ae1f-8e98904bb309}, ! UUID
  {c5165e22-b71f-4db5-a222-fd01bf9b50c3}, ! Version UUID
  1366306878,                             ! Creation Timestamp
  1366306878,                             ! Version Timestamp
  {1cd1bd7a-b5a5-48e4-848e-fd096a3d5bb5}; ! Name of Object 1

