
OS:Version,
  {2da2ef6e-5718-449b-bed3-163765a29cef}, ! Handle
  0.9.3;                                  ! Version Identifier

OS:SizingPeriod:DesignDay,
  {c2e075ca-03ee-49ba-851a-ad4922e66dcd}, ! Handle
  Santa Maria Ann Clg 1% Condns WB=>MDB,  ! Name
  24.7,                                   ! Maximum Dry-Bulb Temperature {C}
  10.2,                                   ! Daily Dry-Bulb Temperature Range {deltaC}
  18.2,                                   ! Humidity Indicating Conditions at Maximum Dry-Bulb {BasedOnField A3}
  100451,                                 ! Barometric Pressure {Pa}
  4.6,                                    ! Wind Speed {m/s}
  300,                                    ! Wind Direction {deg}
  0,                                      ! Sky Clearness
  0,                                      ! Rain Indicator
  0,                                      ! Snow Indicator
  21,                                     ! Day of Month
  8,                                      ! Month
  SummerDesignDay,                        ! Day Type
  0,                                      ! Daylight Saving Time Indicator
  Wetbulb,                                ! Humidity Indicating Type
  ,                                       ! Humidity Indicating Day Schedule Name
  DefaultMultipliers,                     ! Dry-Bulb Temperature Range Modifier Type
  ,                                       ! Dry-Bulb Temperature Range Modifier Schedule Name
  ASHRAETau,                              ! Solar Model Indicator
  ,                                       ! Beam Solar Day Schedule Name
  ,                                       ! Diffuse Solar Day Schedule Name
  0.371,                                  ! ASHRAE Taub {dimensionless}
  2.414;                                  ! ASHRAE Taud {dimensionless}

OS:ComponentData,
  {81e6cc8e-ec2e-4884-b6e2-29d578454a10}, ! Handle
  Component Data 1,                       ! Name
  {6f9beb28-c5de-404a-9dff-3878509c91fd}, ! UUID
  {97419cdd-20f0-47cb-8339-8a17fe72a56e}, ! Version UUID
  1366306612,                             ! Creation Timestamp
  1366306612,                             ! Version Timestamp
  {c2e075ca-03ee-49ba-851a-ad4922e66dcd}; ! Name of Object 1

