
OS:Version,
  {7e72407e-1387-47e3-9fc0-ba9d5ce2620f}, ! Handle
  0.9.3;                                  ! Version Identifier

OS:SizingPeriod:DesignDay,
  {a20fdbfb-344e-497a-94c5-1173a44447dc}, ! Handle
  Rock Springs Arpt  Green Rive Ann Htg Wind 99.6% Condns WS=>MCDB, ! Name
  -2,                                     ! Maximum Dry-Bulb Temperature {C}
  0,                                      ! Daily Dry-Bulb Temperature Range {deltaC}
  -2,                                     ! Humidity Indicating Conditions at Maximum Dry-Bulb {BasedOnField A3}
  89875,                                  ! Barometric Pressure {Pa}
  16.3,                                   ! Wind Speed {m/s}
  70,                                     ! Wind Direction {deg}
  0,                                      ! Sky Clearness
  0,                                      ! Rain Indicator
  0,                                      ! Snow Indicator
  21,                                     ! Day of Month
  12,                                     ! Month
  WinterDesignDay,                        ! Day Type
  0,                                      ! Daylight Saving Time Indicator
  Wetbulb,                                ! Humidity Indicating Type
  ,                                       ! Humidity Indicating Day Schedule Name
  DefaultMultipliers,                     ! Dry-Bulb Temperature Range Modifier Type
  ,                                       ! Dry-Bulb Temperature Range Modifier Schedule Name
  ASHRAEClearSky;                         ! Solar Model Indicator

OS:ComponentData,
  {9f5574f5-6814-4421-9133-55fd6cac3062}, ! Handle
  Component Data 1,                       ! Name
  {2161b853-176d-443f-8705-a8c99e46f11e}, ! UUID
  {20c61551-7111-455e-91c2-e7ad160d3f3a}, ! Version UUID
  1366311737,                             ! Creation Timestamp
  1366311737,                             ! Version Timestamp
  {a20fdbfb-344e-497a-94c5-1173a44447dc}; ! Name of Object 1

