
OS:Version,
  {27e5b168-e5e9-46e9-a19a-230be064705c}, ! Handle
  0.9.3;                                  ! Version Identifier

OS:SizingPeriod:DesignDay,
  {216c9a31-f3a2-4feb-9537-e677a17b5a68}, ! Handle
  Spokane/Fairchild AFB Ann Clg 2% Condns Enth=>MDB, ! Name
  27.8,                                   ! Maximum Dry-Bulb Temperature {C}
  14.6,                                   ! Daily Dry-Bulb Temperature Range {deltaC}
  49100,                                  ! Humidity Indicating Conditions at Maximum Dry-Bulb {BasedOnField A3}
  92634,                                  ! Barometric Pressure {Pa}
  4.1,                                    ! Wind Speed {m/s}
  240,                                    ! Wind Direction {deg}
  0,                                      ! Sky Clearness
  0,                                      ! Rain Indicator
  0,                                      ! Snow Indicator
  21,                                     ! Day of Month
  7,                                      ! Month
  SummerDesignDay,                        ! Day Type
  0,                                      ! Daylight Saving Time Indicator
  Enthalpy,                               ! Humidity Indicating Type
  ,                                       ! Humidity Indicating Day Schedule Name
  DefaultMultipliers,                     ! Dry-Bulb Temperature Range Modifier Type
  ,                                       ! Dry-Bulb Temperature Range Modifier Schedule Name
  ASHRAETau,                              ! Solar Model Indicator
  ,                                       ! Beam Solar Day Schedule Name
  ,                                       ! Diffuse Solar Day Schedule Name
  0.354,                                  ! ASHRAE Taub {dimensionless}
  2.385;                                  ! ASHRAE Taud {dimensionless}

OS:ComponentData,
  {05297ee4-5ef5-4bc1-ad84-b4cf0f361287}, ! Handle
  Component Data 1,                       ! Name
  {88a13ad8-f4e8-4a03-8b20-d8d1b5a847f8}, ! UUID
  {c2be2ea4-5a58-4ecd-bcf9-a5f53a72c1a4}, ! Version UUID
  1366311392,                             ! Creation Timestamp
  1366311392,                             ! Version Timestamp
  {216c9a31-f3a2-4feb-9537-e677a17b5a68}; ! Name of Object 1

