
OS:Version,
  {ee403feb-206d-42ab-a235-43796583914c}, ! Handle
  0.9.3;                                  ! Version Identifier

OS:SizingPeriod:DesignDay,
  {3547c8b1-7eda-4589-a7f5-faac0861623c}, ! Handle
  Southwest Florida I Ann Hum_n 99% Condns DP=>MCDB, ! Name
  12.4,                                   ! Maximum Dry-Bulb Temperature {C}
  0,                                      ! Daily Dry-Bulb Temperature Range {deltaC}
  0.9,                                    ! Humidity Indicating Conditions at Maximum Dry-Bulb {BasedOnField A3}
  101217,                                 ! Barometric Pressure {Pa}
  3.2,                                    ! Wind Speed {m/s}
  20,                                     ! Wind Direction {deg}
  0,                                      ! Sky Clearness
  0,                                      ! Rain Indicator
  0,                                      ! Snow Indicator
  21,                                     ! Day of Month
  1,                                      ! Month
  WinterDesignDay,                        ! Day Type
  0,                                      ! Daylight Saving Time Indicator
  Dewpoint,                               ! Humidity Indicating Type
  ,                                       ! Humidity Indicating Day Schedule Name
  DefaultMultipliers,                     ! Dry-Bulb Temperature Range Modifier Type
  ,                                       ! Dry-Bulb Temperature Range Modifier Schedule Name
  ASHRAEClearSky;                         ! Solar Model Indicator

OS:ComponentData,
  {eb5c9934-3f9b-4d4e-a32f-b28545d091dd}, ! Handle
  Component Data 1,                       ! Name
  {7107ae48-8311-4bad-bc01-1324fb5f39dd}, ! UUID
  {401328b3-f911-462c-8565-f9d0b2a8415a}, ! Version UUID
  1366306911,                             ! Creation Timestamp
  1366306911,                             ! Version Timestamp
  {3547c8b1-7eda-4589-a7f5-faac0861623c}; ! Name of Object 1

