
OS:Version,
  {541a3483-d234-4f04-b41f-47f718c5afb8}, ! Handle
  0.9.3;                                  ! Version Identifier

OS:SizingPeriod:DesignDay,
  {99e20bbc-e42e-4453-95fd-1591262d257d}, ! Handle
  Sumter Shaw Afb Ann Clg 1% Condns DB=>MWB, ! Name
  33.8,                                   ! Maximum Dry-Bulb Temperature {C}
  10.4,                                   ! Daily Dry-Bulb Temperature Range {deltaC}
  23.9,                                   ! Humidity Indicating Conditions at Maximum Dry-Bulb {BasedOnField A3}
  100439,                                 ! Barometric Pressure {Pa}
  3.6,                                    ! Wind Speed {m/s}
  240,                                    ! Wind Direction {deg}
  0,                                      ! Sky Clearness
  0,                                      ! Rain Indicator
  0,                                      ! Snow Indicator
  21,                                     ! Day of Month
  7,                                      ! Month
  SummerDesignDay,                        ! Day Type
  0,                                      ! Daylight Saving Time Indicator
  Wetbulb,                                ! Humidity Indicating Type
  ,                                       ! Humidity Indicating Day Schedule Name
  DefaultMultipliers,                     ! Dry-Bulb Temperature Range Modifier Type
  ,                                       ! Dry-Bulb Temperature Range Modifier Schedule Name
  ASHRAETau,                              ! Solar Model Indicator
  ,                                       ! Beam Solar Day Schedule Name
  ,                                       ! Diffuse Solar Day Schedule Name
  0.57,                                   ! ASHRAE Taub {dimensionless}
  1.751;                                  ! ASHRAE Taud {dimensionless}

OS:ComponentData,
  {a3392bc5-552d-458d-9b9f-dd2fad7549cb}, ! Handle
  Component Data 1,                       ! Name
  {30b391ca-922e-4c7d-acaa-85eddbdb93c5}, ! UUID
  {3fa39f31-199d-49a2-a98f-383ed2c505c8}, ! Version UUID
  1366310379,                             ! Creation Timestamp
  1366310379,                             ! Version Timestamp
  {99e20bbc-e42e-4453-95fd-1591262d257d}; ! Name of Object 1

