
OS:Version,
  {ae0d32cb-aadb-4603-99ab-a26dfa889c6e}, ! Handle
  0.9.3;                                  ! Version Identifier

OS:SizingPeriod:DesignDay,
  {8bf47149-58ca-47ca-9e19-a5b5755582d4}, ! Handle
  Mansfield Lahm Municipal Arpt Ann Htg Wind 99% Condns WS=>MCDB, ! Name
  1.5,                                    ! Maximum Dry-Bulb Temperature {C}
  0,                                      ! Daily Dry-Bulb Temperature Range {deltaC}
  1.5,                                    ! Humidity Indicating Conditions at Maximum Dry-Bulb {BasedOnField A3}
  96669,                                  ! Barometric Pressure {Pa}
  11.8,                                   ! Wind Speed {m/s}
  250,                                    ! Wind Direction {deg}
  0,                                      ! Sky Clearness
  0,                                      ! Rain Indicator
  0,                                      ! Snow Indicator
  21,                                     ! Day of Month
  1,                                      ! Month
  WinterDesignDay,                        ! Day Type
  0,                                      ! Daylight Saving Time Indicator
  Wetbulb,                                ! Humidity Indicating Type
  ,                                       ! Humidity Indicating Day Schedule Name
  DefaultMultipliers,                     ! Dry-Bulb Temperature Range Modifier Type
  ,                                       ! Dry-Bulb Temperature Range Modifier Schedule Name
  ASHRAEClearSky;                         ! Solar Model Indicator

OS:ComponentData,
  {c294afde-8558-40ad-9039-5d2001f7cfd5}, ! Handle
  Component Data 1,                       ! Name
  {aae9c6ff-15be-4924-969b-320cb548ee24}, ! UUID
  {6bf31674-b0ce-4fba-9d28-91a990af436d}, ! Version UUID
  1366309830,                             ! Creation Timestamp
  1366309830,                             ! Version Timestamp
  {8bf47149-58ca-47ca-9e19-a5b5755582d4}; ! Name of Object 1

