
OS:Version,
  {321f6467-3fce-4725-a8ee-5fb258a52939}, ! Handle
  0.9.3;                                  ! Version Identifier

OS:SizingPeriod:DesignDay,
  {c46c6538-dc1e-47a9-9e42-cf294e057d03}, ! Handle
  Russell Municipal Ap Ann Clg 2% Condns DB=>MWB, ! Name
  34.4,                                   ! Maximum Dry-Bulb Temperature {C}
  13.4,                                   ! Daily Dry-Bulb Temperature Range {deltaC}
  22.2,                                   ! Humidity Indicating Conditions at Maximum Dry-Bulb {BasedOnField A3}
  94708,                                  ! Barometric Pressure {Pa}
  7.9,                                    ! Wind Speed {m/s}
  180,                                    ! Wind Direction {deg}
  0,                                      ! Sky Clearness
  0,                                      ! Rain Indicator
  0,                                      ! Snow Indicator
  21,                                     ! Day of Month
  7,                                      ! Month
  SummerDesignDay,                        ! Day Type
  0,                                      ! Daylight Saving Time Indicator
  Wetbulb,                                ! Humidity Indicating Type
  ,                                       ! Humidity Indicating Day Schedule Name
  DefaultMultipliers,                     ! Dry-Bulb Temperature Range Modifier Type
  ,                                       ! Dry-Bulb Temperature Range Modifier Schedule Name
  ASHRAETau,                              ! Solar Model Indicator
  ,                                       ! Beam Solar Day Schedule Name
  ,                                       ! Diffuse Solar Day Schedule Name
  0.427,                                  ! ASHRAE Taub {dimensionless}
  2.131;                                  ! ASHRAE Taud {dimensionless}

OS:ComponentData,
  {ef035ed0-edf8-489f-9ca0-4cfadf826f4d}, ! Handle
  Component Data 1,                       ! Name
  {27bc9c6a-dfc8-4053-876f-cf4987b3e51f}, ! UUID
  {4a83973a-98f4-4e18-80f8-c485a77e02ac}, ! Version UUID
  1366307572,                             ! Creation Timestamp
  1366307572,                             ! Version Timestamp
  {c46c6538-dc1e-47a9-9e42-cf294e057d03}; ! Name of Object 1

