
OS:Version,
  {aa7eb2bd-bce3-45af-979b-65d4ec0a104e}, ! Handle
  0.9.3;                                  ! Version Identifier

OS:SizingPeriod:DesignDay,
  {7eca696b-1605-48c3-b5a1-7d482e55aee9}, ! Handle
  Youngstown Ann Htg Wind 99.6% Condns WS=>MCDB, ! Name
  -4.5,                                   ! Maximum Dry-Bulb Temperature {C}
  0,                                      ! Daily Dry-Bulb Temperature Range {deltaC}
  -4.5,                                   ! Humidity Indicating Conditions at Maximum Dry-Bulb {BasedOnField A3}
  97063,                                  ! Barometric Pressure {Pa}
  11.8,                                   ! Wind Speed {m/s}
  260,                                    ! Wind Direction {deg}
  0,                                      ! Sky Clearness
  0,                                      ! Rain Indicator
  0,                                      ! Snow Indicator
  21,                                     ! Day of Month
  1,                                      ! Month
  WinterDesignDay,                        ! Day Type
  0,                                      ! Daylight Saving Time Indicator
  Wetbulb,                                ! Humidity Indicating Type
  ,                                       ! Humidity Indicating Day Schedule Name
  DefaultMultipliers,                     ! Dry-Bulb Temperature Range Modifier Type
  ,                                       ! Dry-Bulb Temperature Range Modifier Schedule Name
  ASHRAEClearSky;                         ! Solar Model Indicator

OS:ComponentData,
  {f9fa5815-278d-4336-9008-d63eb835f921}, ! Handle
  Component Data 1,                       ! Name
  {adb5d229-9f40-4df6-9a7e-d11ac713befc}, ! UUID
  {ac8e7e93-1e7d-415a-8839-46bad9e8f0dd}, ! Version UUID
  1366309864,                             ! Creation Timestamp
  1366309864,                             ! Version Timestamp
  {7eca696b-1605-48c3-b5a1-7d482e55aee9}; ! Name of Object 1

