
OS:Version,
  {b7bb3774-61ba-41e6-8ead-438a55292dc5}, ! Handle
  0.9.3;                                  ! Version Identifier

OS:SizingPeriod:DesignDay,
  {650774d2-08dc-40c7-affe-4a0c613ea9d4}, ! Handle
  Memphis International Ap Ann Clg .4% Condns DB=>MWB, ! Name
  35.6,                                   ! Maximum Dry-Bulb Temperature {C}
  9.2,                                    ! Daily Dry-Bulb Temperature Range {deltaC}
  25.2,                                   ! Humidity Indicating Conditions at Maximum Dry-Bulb {BasedOnField A3}
  100356,                                 ! Barometric Pressure {Pa}
  3.8,                                    ! Wind Speed {m/s}
  240,                                    ! Wind Direction {deg}
  0,                                      ! Sky Clearness
  0,                                      ! Rain Indicator
  0,                                      ! Snow Indicator
  21,                                     ! Day of Month
  7,                                      ! Month
  SummerDesignDay,                        ! Day Type
  0,                                      ! Daylight Saving Time Indicator
  Wetbulb,                                ! Humidity Indicating Type
  ,                                       ! Humidity Indicating Day Schedule Name
  DefaultMultipliers,                     ! Dry-Bulb Temperature Range Modifier Type
  ,                                       ! Dry-Bulb Temperature Range Modifier Schedule Name
  ASHRAETau,                              ! Solar Model Indicator
  ,                                       ! Beam Solar Day Schedule Name
  ,                                       ! Diffuse Solar Day Schedule Name
  0.512,                                  ! ASHRAE Taub {dimensionless}
  1.892;                                  ! ASHRAE Taud {dimensionless}

OS:ComponentData,
  {ed70f357-ba73-4816-8c34-30fc5e65294c}, ! Handle
  Component Data 1,                       ! Name
  {c9acc1ea-97ae-4a84-adba-f2101fe1c267}, ! UUID
  {9815edeb-195d-491c-af21-ee5900295ab0}, ! Version UUID
  1366310529,                             ! Creation Timestamp
  1366310529,                             ! Version Timestamp
  {650774d2-08dc-40c7-affe-4a0c613ea9d4}; ! Name of Object 1

