
OS:Version,
  {d3dfc1ff-e5f7-4969-8a23-27a253166a1d}, ! Handle
  0.9.3;                                  ! Version Identifier

OS:SizingPeriod:DesignDay,
  {58f0af6f-6f57-46a7-af45-7329d064c02c}, ! Handle
  Newark International Arpt Ann Clg 1% Condns Enth=>MDB, ! Name
  30,                                     ! Maximum Dry-Bulb Temperature {C}
  8.9,                                    ! Daily Dry-Bulb Temperature Range {deltaC}
  74300,                                  ! Humidity Indicating Conditions at Maximum Dry-Bulb {BasedOnField A3}
  101289,                                 ! Barometric Pressure {Pa}
  5.8,                                    ! Wind Speed {m/s}
  250,                                    ! Wind Direction {deg}
  0,                                      ! Sky Clearness
  0,                                      ! Rain Indicator
  0,                                      ! Snow Indicator
  21,                                     ! Day of Month
  7,                                      ! Month
  SummerDesignDay,                        ! Day Type
  0,                                      ! Daylight Saving Time Indicator
  Enthalpy,                               ! Humidity Indicating Type
  ,                                       ! Humidity Indicating Day Schedule Name
  DefaultMultipliers,                     ! Dry-Bulb Temperature Range Modifier Type
  ,                                       ! Dry-Bulb Temperature Range Modifier Schedule Name
  ASHRAETau,                              ! Solar Model Indicator
  ,                                       ! Beam Solar Day Schedule Name
  ,                                       ! Diffuse Solar Day Schedule Name
  0.528,                                  ! ASHRAE Taub {dimensionless}
  1.831;                                  ! ASHRAE Taud {dimensionless}

OS:ComponentData,
  {574aa0a0-1127-44d7-9417-0875bd59d12b}, ! Handle
  Component Data 1,                       ! Name
  {a0312f5f-0049-4b8a-9869-ecedbe6b62aa}, ! UUID
  {7c1c0ef4-cd0a-4cc6-a8ab-517aaa035b38}, ! Version UUID
  1366309340,                             ! Creation Timestamp
  1366309340,                             ! Version Timestamp
  {58f0af6f-6f57-46a7-af45-7329d064c02c}; ! Name of Object 1

