
OS:Version,
  {b5ae7f28-6d9a-426b-9f0f-5c2259249f06}, ! Handle
  0.9.3;                                  ! Version Identifier

OS:SizingPeriod:DesignDay,
  {214d9004-b264-468b-96be-f8edd02bfaf0}, ! Handle
  Tuscaloosa Municipal Ap Ann Clg .4% Condns DB=>MWB, ! Name
  35.4,                                   ! Maximum Dry-Bulb Temperature {C}
  10.7,                                   ! Daily Dry-Bulb Temperature Range {deltaC}
  24.7,                                   ! Humidity Indicating Conditions at Maximum Dry-Bulb {BasedOnField A3}
  100714,                                 ! Barometric Pressure {Pa}
  3.2,                                    ! Wind Speed {m/s}
  250,                                    ! Wind Direction {deg}
  0,                                      ! Sky Clearness
  0,                                      ! Rain Indicator
  0,                                      ! Snow Indicator
  21,                                     ! Day of Month
  7,                                      ! Month
  SummerDesignDay,                        ! Day Type
  0,                                      ! Daylight Saving Time Indicator
  Wetbulb,                                ! Humidity Indicating Type
  ,                                       ! Humidity Indicating Day Schedule Name
  DefaultMultipliers,                     ! Dry-Bulb Temperature Range Modifier Type
  ,                                       ! Dry-Bulb Temperature Range Modifier Schedule Name
  ASHRAETau,                              ! Solar Model Indicator
  ,                                       ! Beam Solar Day Schedule Name
  ,                                       ! Diffuse Solar Day Schedule Name
  0.574,                                  ! ASHRAE Taub {dimensionless}
  1.754;                                  ! ASHRAE Taud {dimensionless}

OS:ComponentData,
  {4cf30bf1-1558-43b2-be5c-a8f4d1a90e85}, ! Handle
  Component Data 1,                       ! Name
  {82f120f3-6802-46fb-be57-198759836078}, ! UUID
  {4cd65522-c304-47cf-a72e-53c05e96e37c}, ! Version UUID
  1366306024,                             ! Creation Timestamp
  1366306024,                             ! Version Timestamp
  {214d9004-b264-468b-96be-f8edd02bfaf0}; ! Name of Object 1

