
OS:Version,
  {bbdeacc2-67d9-4eec-9c8c-f444874630e3}, ! Handle
  0.9.3;                                  ! Version Identifier

OS:SizingPeriod:DesignDay,
  {10c34ccd-108d-4f74-ad73-bb37155f43b1}, ! Handle
  SPRINGFIELD Ann Htg Wind 99% Condns WS=>MCDB, ! Name
  3,                                      ! Maximum Dry-Bulb Temperature {C}
  0,                                      ! Daily Dry-Bulb Temperature Range {deltaC}
  3,                                      ! Humidity Indicating Conditions at Maximum Dry-Bulb {BasedOnField A3}
  96761,                                  ! Barometric Pressure {Pa}
  10.7,                                   ! Wind Speed {m/s}
  350,                                    ! Wind Direction {deg}
  0,                                      ! Sky Clearness
  0,                                      ! Rain Indicator
  0,                                      ! Snow Indicator
  21,                                     ! Day of Month
  1,                                      ! Month
  WinterDesignDay,                        ! Day Type
  0,                                      ! Daylight Saving Time Indicator
  Wetbulb,                                ! Humidity Indicating Type
  ,                                       ! Humidity Indicating Day Schedule Name
  DefaultMultipliers,                     ! Dry-Bulb Temperature Range Modifier Type
  ,                                       ! Dry-Bulb Temperature Range Modifier Schedule Name
  ASHRAEClearSky;                         ! Solar Model Indicator

OS:ComponentData,
  {53c2339d-4276-4f55-83d3-24e1f2e57efa}, ! Handle
  Component Data 1,                       ! Name
  {73ff5a69-96c8-4047-9343-b8866a8f6b47}, ! UUID
  {73855798-994f-4d99-8fca-1be59347cb7c}, ! Version UUID
  1366308559,                             ! Creation Timestamp
  1366308559,                             ! Version Timestamp
  {10c34ccd-108d-4f74-ad73-bb37155f43b1}; ! Name of Object 1

