
OS:Version,
  {ba6cba03-f96b-4a4d-8a60-603749b12bf4}, ! Handle
  0.9.3;                                  ! Version Identifier

OS:SizingPeriod:DesignDay,
  {129f163e-879d-4474-9907-3a76c9ca9349}, ! Handle
  Red Bluff Municipal Arpt Ann Htg Wind 99% Condns WS=>MCDB, ! Name
  10.9,                                   ! Maximum Dry-Bulb Temperature {C}
  0,                                      ! Daily Dry-Bulb Temperature Range {deltaC}
  10.9,                                   ! Humidity Indicating Conditions at Maximum Dry-Bulb {BasedOnField A3}
  100058,                                 ! Barometric Pressure {Pa}
  14,                                     ! Wind Speed {m/s}
  320,                                    ! Wind Direction {deg}
  0,                                      ! Sky Clearness
  0,                                      ! Rain Indicator
  0,                                      ! Snow Indicator
  21,                                     ! Day of Month
  12,                                     ! Month
  WinterDesignDay,                        ! Day Type
  0,                                      ! Daylight Saving Time Indicator
  Wetbulb,                                ! Humidity Indicating Type
  ,                                       ! Humidity Indicating Day Schedule Name
  DefaultMultipliers,                     ! Dry-Bulb Temperature Range Modifier Type
  ,                                       ! Dry-Bulb Temperature Range Modifier Schedule Name
  ASHRAEClearSky;                         ! Solar Model Indicator

OS:ComponentData,
  {1f751f11-405e-4c5d-a42a-ae79ac3d328c}, ! Handle
  Component Data 1,                       ! Name
  {80aac437-a9bc-4583-8616-fc0611facf13}, ! UUID
  {a6d3452e-20b4-48d5-941f-875e159221d7}, ! Version UUID
  1366306545,                             ! Creation Timestamp
  1366306545,                             ! Version Timestamp
  {129f163e-879d-4474-9907-3a76c9ca9349}; ! Name of Object 1

