
OS:Version,
  {03b265ca-22d3-4308-80f6-a2cfe7815926}, ! Handle
  0.9.3;                                  ! Version Identifier

OS:SizingPeriod:DesignDay,
  {a5b11be3-8ab4-4a07-98f5-5fe3dc2b7d97}, ! Handle
  Vichy Rolla Natl Arpt Ann Clg .4% Condns DB=>MWB, ! Name
  35.2,                                   ! Maximum Dry-Bulb Temperature {C}
  11.1,                                   ! Daily Dry-Bulb Temperature Range {deltaC}
  24.1,                                   ! Humidity Indicating Conditions at Maximum Dry-Bulb {BasedOnField A3}
  97353,                                  ! Barometric Pressure {Pa}
  4.1,                                    ! Wind Speed {m/s}
  230,                                    ! Wind Direction {deg}
  0,                                      ! Sky Clearness
  0,                                      ! Rain Indicator
  0,                                      ! Snow Indicator
  21,                                     ! Day of Month
  7,                                      ! Month
  SummerDesignDay,                        ! Day Type
  0,                                      ! Daylight Saving Time Indicator
  Wetbulb,                                ! Humidity Indicating Type
  ,                                       ! Humidity Indicating Day Schedule Name
  DefaultMultipliers,                     ! Dry-Bulb Temperature Range Modifier Type
  ,                                       ! Dry-Bulb Temperature Range Modifier Schedule Name
  ASHRAETau,                              ! Solar Model Indicator
  ,                                       ! Beam Solar Day Schedule Name
  ,                                       ! Diffuse Solar Day Schedule Name
  0.446,                                  ! ASHRAE Taub {dimensionless}
  2.105;                                  ! ASHRAE Taud {dimensionless}

OS:ComponentData,
  {2e2e70b9-adad-42f3-a122-54fbfd646a58}, ! Handle
  Component Data 1,                       ! Name
  {d43fe11d-cf0f-43e7-b427-a3fb90832619}, ! UUID
  {96c90cc5-4822-45e7-9242-cc012fe93980}, ! Version UUID
  1366308549,                             ! Creation Timestamp
  1366308549,                             ! Version Timestamp
  {a5b11be3-8ab4-4a07-98f5-5fe3dc2b7d97}; ! Name of Object 1

