
OS:Version,
  {9fa00c4c-54c0-4989-80a5-edb0dd0f9016}, ! Handle
  0.9.3;                                  ! Version Identifier

OS:SizingPeriod:DesignDay,
  {ed2d8c24-935f-44ba-a0e6-ed6d6c2783d5}, ! Handle
  Springfield Hartnes Ann Htg Wind 99.6% Condns WS=>MCDB, ! Name
  -5.3,                                   ! Maximum Dry-Bulb Temperature {C}
  0,                                      ! Daily Dry-Bulb Temperature Range {deltaC}
  -5.3,                                   ! Humidity Indicating Conditions at Maximum Dry-Bulb {BasedOnField A3}
  99228,                                  ! Barometric Pressure {Pa}
  9.3,                                    ! Wind Speed {m/s}
  310,                                    ! Wind Direction {deg}
  0,                                      ! Sky Clearness
  0,                                      ! Rain Indicator
  0,                                      ! Snow Indicator
  21,                                     ! Day of Month
  1,                                      ! Month
  WinterDesignDay,                        ! Day Type
  0,                                      ! Daylight Saving Time Indicator
  Wetbulb,                                ! Humidity Indicating Type
  ,                                       ! Humidity Indicating Day Schedule Name
  DefaultMultipliers,                     ! Dry-Bulb Temperature Range Modifier Type
  ,                                       ! Dry-Bulb Temperature Range Modifier Schedule Name
  ASHRAEClearSky;                         ! Solar Model Indicator

OS:ComponentData,
  {edf6b001-503d-4a0b-9dba-589c3d190952}, ! Handle
  Component Data 1,                       ! Name
  {4cf34dbd-afa3-4f75-8681-d4706870022a}, ! UUID
  {a992f304-960a-454f-9bc2-d0c6ca05881c}, ! Version UUID
  1366311261,                             ! Creation Timestamp
  1366311261,                             ! Version Timestamp
  {ed2d8c24-935f-44ba-a0e6-ed6d6c2783d5}; ! Name of Object 1

