
OS:Version,
  {0be6f4a9-fb33-4a22-9ad2-c858561801ab}, ! Handle
  0.9.3;                                  ! Version Identifier

OS:SizingPeriod:DesignDay,
  {2a9e28d6-394e-40cb-8541-3fa618c99339}, ! Handle
  Porterville  Awos Ann Htg Wind 99.6% Condns WS=>MCDB, ! Name
  12.9,                                   ! Maximum Dry-Bulb Temperature {C}
  0,                                      ! Daily Dry-Bulb Temperature Range {deltaC}
  12.9,                                   ! Humidity Indicating Conditions at Maximum Dry-Bulb {BasedOnField A3}
  99714,                                  ! Barometric Pressure {Pa}
  6.6,                                    ! Wind Speed {m/s}
  140,                                    ! Wind Direction {deg}
  0,                                      ! Sky Clearness
  0,                                      ! Rain Indicator
  0,                                      ! Snow Indicator
  21,                                     ! Day of Month
  12,                                     ! Month
  WinterDesignDay,                        ! Day Type
  0,                                      ! Daylight Saving Time Indicator
  Wetbulb,                                ! Humidity Indicating Type
  ,                                       ! Humidity Indicating Day Schedule Name
  DefaultMultipliers,                     ! Dry-Bulb Temperature Range Modifier Type
  ,                                       ! Dry-Bulb Temperature Range Modifier Schedule Name
  ASHRAEClearSky;                         ! Solar Model Indicator

OS:ComponentData,
  {c02bab89-0dc8-47b3-9864-9cf99d90e5b1}, ! Handle
  Component Data 1,                       ! Name
  {a302a7e5-362e-4c3b-8dee-cad5e0d9fe1c}, ! UUID
  {e459dbe2-517d-495b-9f46-28ce14d920c5}, ! Version UUID
  1366306541,                             ! Creation Timestamp
  1366306541,                             ! Version Timestamp
  {2a9e28d6-394e-40cb-8541-3fa618c99339}; ! Name of Object 1

