
OS:Version,
  {10e1ad91-5e43-4946-a1e3-d1152875e281}, ! Handle
  0.9.3;                                  ! Version Identifier

OS:SizingPeriod:DesignDay,
  {32ac6c86-40da-4999-a231-a993cd18594d}, ! Handle
  Wichita Col  Jabara Ann Clg .4% Condns DB=>MWB, ! Name
  37.6,                                   ! Maximum Dry-Bulb Temperature {C}
  12,                                     ! Daily Dry-Bulb Temperature Range {deltaC}
  23.2,                                   ! Humidity Indicating Conditions at Maximum Dry-Bulb {BasedOnField A3}
  96230,                                  ! Barometric Pressure {Pa}
  6.2,                                    ! Wind Speed {m/s}
  180,                                    ! Wind Direction {deg}
  0,                                      ! Sky Clearness
  0,                                      ! Rain Indicator
  0,                                      ! Snow Indicator
  21,                                     ! Day of Month
  7,                                      ! Month
  SummerDesignDay,                        ! Day Type
  0,                                      ! Daylight Saving Time Indicator
  Wetbulb,                                ! Humidity Indicating Type
  ,                                       ! Humidity Indicating Day Schedule Name
  DefaultMultipliers,                     ! Dry-Bulb Temperature Range Modifier Type
  ,                                       ! Dry-Bulb Temperature Range Modifier Schedule Name
  ASHRAETau,                              ! Solar Model Indicator
  ,                                       ! Beam Solar Day Schedule Name
  ,                                       ! Diffuse Solar Day Schedule Name
  0.418,                                  ! ASHRAE Taub {dimensionless}
  2.21;                                   ! ASHRAE Taud {dimensionless}

OS:ComponentData,
  {b6cc64b0-bf4b-45cb-bccf-5d5cbb247524}, ! Handle
  Component Data 1,                       ! Name
  {bc6717c4-b30f-41e6-8bfe-9e962325157e}, ! UUID
  {edbacd4a-c2ba-4023-8200-8adc7d17be45}, ! Version UUID
  1366307595,                             ! Creation Timestamp
  1366307595,                             ! Version Timestamp
  {32ac6c86-40da-4999-a231-a993cd18594d}; ! Name of Object 1

