
OS:Version,
  {9771adc1-cfd8-4716-a44f-0512150d7406}, ! Handle
  0.9.3;                                  ! Version Identifier

OS:SizingPeriod:DesignDay,
  {03d8d950-e1a7-4d57-a8d7-d9c636a80643}, ! Handle
  Mountain View Moffett Fld Nas Ann Clg .4% Condns Enth=>MDB, ! Name
  28.1,                                   ! Maximum Dry-Bulb Temperature {C}
  9.5,                                    ! Daily Dry-Bulb Temperature Range {deltaC}
  58100,                                  ! Humidity Indicating Conditions at Maximum Dry-Bulb {BasedOnField A3}
  101181,                                 ! Barometric Pressure {Pa}
  3.9,                                    ! Wind Speed {m/s}
  340,                                    ! Wind Direction {deg}
  0,                                      ! Sky Clearness
  0,                                      ! Rain Indicator
  0,                                      ! Snow Indicator
  21,                                     ! Day of Month
  7,                                      ! Month
  SummerDesignDay,                        ! Day Type
  0,                                      ! Daylight Saving Time Indicator
  Enthalpy,                               ! Humidity Indicating Type
  ,                                       ! Humidity Indicating Day Schedule Name
  DefaultMultipliers,                     ! Dry-Bulb Temperature Range Modifier Type
  ,                                       ! Dry-Bulb Temperature Range Modifier Schedule Name
  ASHRAETau,                              ! Solar Model Indicator
  ,                                       ! Beam Solar Day Schedule Name
  ,                                       ! Diffuse Solar Day Schedule Name
  0.378,                                  ! ASHRAE Taub {dimensionless}
  2.37;                                   ! ASHRAE Taud {dimensionless}

OS:ComponentData,
  {ee382816-ca12-4b1c-9508-22917e835305}, ! Handle
  Component Data 1,                       ! Name
  {b2031b28-e383-43da-8a06-041921a93c7c}, ! UUID
  {42886e77-442f-497c-b527-28556079c335}, ! Version UUID
  1366306514,                             ! Creation Timestamp
  1366306514,                             ! Version Timestamp
  {03d8d950-e1a7-4d57-a8d7-d9c636a80643}; ! Name of Object 1

