
OS:Version,
  {b28bd01c-51d8-4c56-9a8f-81525ad7f09b}, ! Handle
  0.9.3;                                  ! Version Identifier

OS:SizingPeriod:DesignDay,
  {cb0805c3-a2bc-4750-af32-ca354583a94a}, ! Handle
  MIDLAND Ann Clg 2% Condns DP=>MDB,      ! Name
  24.3,                                   ! Maximum Dry-Bulb Temperature {C}
  13.1,                                   ! Daily Dry-Bulb Temperature Range {deltaC}
  19.7,                                   ! Humidity Indicating Conditions at Maximum Dry-Bulb {BasedOnField A3}
  91290,                                  ! Barometric Pressure {Pa}
  5.7,                                    ! Wind Speed {m/s}
  150,                                    ! Wind Direction {deg}
  0,                                      ! Sky Clearness
  0,                                      ! Rain Indicator
  0,                                      ! Snow Indicator
  21,                                     ! Day of Month
  7,                                      ! Month
  SummerDesignDay,                        ! Day Type
  0,                                      ! Daylight Saving Time Indicator
  Dewpoint,                               ! Humidity Indicating Type
  ,                                       ! Humidity Indicating Day Schedule Name
  DefaultMultipliers,                     ! Dry-Bulb Temperature Range Modifier Type
  ,                                       ! Dry-Bulb Temperature Range Modifier Schedule Name
  ASHRAETau,                              ! Solar Model Indicator
  ,                                       ! Beam Solar Day Schedule Name
  ,                                       ! Diffuse Solar Day Schedule Name
  0.443,                                  ! ASHRAE Taub {dimensionless}
  2.032;                                  ! ASHRAE Taud {dimensionless}

OS:ComponentData,
  {7ac8f504-1a54-483f-a65c-606e9075429b}, ! Handle
  Component Data 1,                       ! Name
  {0649e99f-5507-4378-97ef-db3e3c8229aa}, ! UUID
  {b514d86b-f3ba-4e13-978f-5a7da79d84d5}, ! Version UUID
  1366310828,                             ! Creation Timestamp
  1366310828,                             ! Version Timestamp
  {cb0805c3-a2bc-4750-af32-ca354583a94a}; ! Name of Object 1

