
OS:Version,
  {2fabacb6-b2f0-4f32-b50b-e770d751e4aa}, ! Handle
  0.9.3;                                  ! Version Identifier

OS:SizingPeriod:DesignDay,
  {a5251390-e9db-40c0-af5b-dcfcaa1bff51}, ! Handle
  St Louis Spirit Of St Louis A Ann Htg 99.6% Condns DB, ! Name
  -15,                                    ! Maximum Dry-Bulb Temperature {C}
  0,                                      ! Daily Dry-Bulb Temperature Range {deltaC}
  -15,                                    ! Humidity Indicating Conditions at Maximum Dry-Bulb {BasedOnField A3}
  99643,                                  ! Barometric Pressure {Pa}
  3.4,                                    ! Wind Speed {m/s}
  290,                                    ! Wind Direction {deg}
  0,                                      ! Sky Clearness
  0,                                      ! Rain Indicator
  0,                                      ! Snow Indicator
  21,                                     ! Day of Month
  1,                                      ! Month
  WinterDesignDay,                        ! Day Type
  0,                                      ! Daylight Saving Time Indicator
  Wetbulb,                                ! Humidity Indicating Type
  ,                                       ! Humidity Indicating Day Schedule Name
  DefaultMultipliers,                     ! Dry-Bulb Temperature Range Modifier Type
  ,                                       ! Dry-Bulb Temperature Range Modifier Schedule Name
  ASHRAEClearSky;                         ! Solar Model Indicator

