
OS:Version,
  {65f8c5c3-2722-44bb-9e2d-d3bbfdb4e5a7}, ! Handle
  0.9.3;                                  ! Version Identifier

OS:SizingPeriod:DesignDay,
  {ef0771c5-e8df-4f32-ba13-e55efd80b2d0}, ! Handle
  Midland International Ap Ann Clg .4% Condns Enth=>MDB, ! Name
  30.5,                                   ! Maximum Dry-Bulb Temperature {C}
  13.1,                                   ! Daily Dry-Bulb Temperature Range {deltaC}
  72000,                                  ! Humidity Indicating Conditions at Maximum Dry-Bulb {BasedOnField A3}
  91279,                                  ! Barometric Pressure {Pa}
  5.7,                                    ! Wind Speed {m/s}
  150,                                    ! Wind Direction {deg}
  0,                                      ! Sky Clearness
  0,                                      ! Rain Indicator
  0,                                      ! Snow Indicator
  21,                                     ! Day of Month
  7,                                      ! Month
  SummerDesignDay,                        ! Day Type
  0,                                      ! Daylight Saving Time Indicator
  Enthalpy,                               ! Humidity Indicating Type
  ,                                       ! Humidity Indicating Day Schedule Name
  DefaultMultipliers,                     ! Dry-Bulb Temperature Range Modifier Type
  ,                                       ! Dry-Bulb Temperature Range Modifier Schedule Name
  ASHRAETau,                              ! Solar Model Indicator
  ,                                       ! Beam Solar Day Schedule Name
  ,                                       ! Diffuse Solar Day Schedule Name
  0.443,                                  ! ASHRAE Taub {dimensionless}
  2.032;                                  ! ASHRAE Taud {dimensionless}

OS:ComponentData,
  {8337aef6-a854-4d83-baea-466858843b15}, ! Handle
  Component Data 1,                       ! Name
  {f1439f56-203c-4ec2-8528-63e847ed8c01}, ! UUID
  {5dfbec26-c1fb-4672-8508-c1f0b480ae50}, ! Version UUID
  1366310836,                             ! Creation Timestamp
  1366310836,                             ! Version Timestamp
  {ef0771c5-e8df-4f32-ba13-e55efd80b2d0}; ! Name of Object 1

