
OS:Version,
  {35ae9964-ecd7-4caf-aca8-6456fcfc9f59}, ! Handle
  0.9.3;                                  ! Version Identifier

OS:SizingPeriod:DesignDay,
  {0039e4a1-823f-4e30-a83e-541ddd73f021}, ! Handle
  Menominee  Awos Ann Clg 1% Condns DP=>MDB, ! Name
  25.3,                                   ! Maximum Dry-Bulb Temperature {C}
  10.4,                                   ! Daily Dry-Bulb Temperature Range {deltaC}
  18.9,                                   ! Humidity Indicating Conditions at Maximum Dry-Bulb {BasedOnField A3}
  99051,                                  ! Barometric Pressure {Pa}
  4.6,                                    ! Wind Speed {m/s}
  230,                                    ! Wind Direction {deg}
  0,                                      ! Sky Clearness
  0,                                      ! Rain Indicator
  0,                                      ! Snow Indicator
  21,                                     ! Day of Month
  7,                                      ! Month
  SummerDesignDay,                        ! Day Type
  0,                                      ! Daylight Saving Time Indicator
  Dewpoint,                               ! Humidity Indicating Type
  ,                                       ! Humidity Indicating Day Schedule Name
  DefaultMultipliers,                     ! Dry-Bulb Temperature Range Modifier Type
  ,                                       ! Dry-Bulb Temperature Range Modifier Schedule Name
  ASHRAETau,                              ! Solar Model Indicator
  ,                                       ! Beam Solar Day Schedule Name
  ,                                       ! Diffuse Solar Day Schedule Name
  0.425,                                  ! ASHRAE Taub {dimensionless}
  2.15;                                   ! ASHRAE Taud {dimensionless}

OS:ComponentData,
  {445c179b-e8cb-4df0-8c6c-14f2b78d433f}, ! Handle
  Component Data 1,                       ! Name
  {535906b4-5e39-4765-87f3-8646b58441a5}, ! UUID
  {8cd3d947-a922-43d5-bfcc-9a77c819448d}, ! Version UUID
  1366308065,                             ! Creation Timestamp
  1366308065,                             ! Version Timestamp
  {0039e4a1-823f-4e30-a83e-541ddd73f021}; ! Name of Object 1

