
OS:Version,
  {f5e19b4b-3496-4e6f-a511-d00d35f140bb}, ! Handle
  0.9.3;                                  ! Version Identifier

OS:SizingPeriod:DesignDay,
  {b107d200-ac8d-4403-ad42-2df04f8dc170}, ! Handle
  Ogden Hill Afb Ann Hum_n 99.6% Condns DP=>MCDB, ! Name
  -11.5,                                  ! Maximum Dry-Bulb Temperature {C}
  0,                                      ! Daily Dry-Bulb Temperature Range {deltaC}
  -18.6,                                  ! Humidity Indicating Conditions at Maximum Dry-Bulb {BasedOnField A3}
  84982,                                  ! Barometric Pressure {Pa}
  5.2,                                    ! Wind Speed {m/s}
  100,                                    ! Wind Direction {deg}
  0,                                      ! Sky Clearness
  0,                                      ! Rain Indicator
  0,                                      ! Snow Indicator
  21,                                     ! Day of Month
  1,                                      ! Month
  WinterDesignDay,                        ! Day Type
  0,                                      ! Daylight Saving Time Indicator
  Dewpoint,                               ! Humidity Indicating Type
  ,                                       ! Humidity Indicating Day Schedule Name
  DefaultMultipliers,                     ! Dry-Bulb Temperature Range Modifier Type
  ,                                       ! Dry-Bulb Temperature Range Modifier Schedule Name
  ASHRAEClearSky;                         ! Solar Model Indicator

OS:ComponentData,
  {1503faa3-fbf1-4b15-8615-a66681ab23d9}, ! Handle
  Component Data 1,                       ! Name
  {c2bb273e-cd0e-486e-8ba9-2ea80a51b2dc}, ! UUID
  {96b2afbe-9b44-498e-8be0-d8182af711d9}, ! Version UUID
  1366310969,                             ! Creation Timestamp
  1366310969,                             ! Version Timestamp
  {b107d200-ac8d-4403-ad42-2df04f8dc170}; ! Name of Object 1

