
OS:Version,
  {73414586-f727-4101-a591-15c71f4699ac}, ! Handle
  0.9.3;                                  ! Version Identifier

OS:SizingPeriod:DesignDay,
  {63ae0a49-fa79-452e-b236-e8afafbf8473}, ! Handle
  Middletown Harrisburg Intl Ap Ann Clg 2% Condns DB=>MWB, ! Name
  30.6,                                   ! Maximum Dry-Bulb Temperature {C}
  9.6,                                    ! Daily Dry-Bulb Temperature Range {deltaC}
  22.6,                                   ! Humidity Indicating Conditions at Maximum Dry-Bulb {BasedOnField A3}
  100225,                                 ! Barometric Pressure {Pa}
  4.4,                                    ! Wind Speed {m/s}
  300,                                    ! Wind Direction {deg}
  0,                                      ! Sky Clearness
  0,                                      ! Rain Indicator
  0,                                      ! Snow Indicator
  21,                                     ! Day of Month
  7,                                      ! Month
  SummerDesignDay,                        ! Day Type
  0,                                      ! Daylight Saving Time Indicator
  Wetbulb,                                ! Humidity Indicating Type
  ,                                       ! Humidity Indicating Day Schedule Name
  DefaultMultipliers,                     ! Dry-Bulb Temperature Range Modifier Type
  ,                                       ! Dry-Bulb Temperature Range Modifier Schedule Name
  ASHRAETau,                              ! Solar Model Indicator
  ,                                       ! Beam Solar Day Schedule Name
  ,                                       ! Diffuse Solar Day Schedule Name
  0.521,                                  ! ASHRAE Taub {dimensionless}
  1.834;                                  ! ASHRAE Taud {dimensionless}

OS:ComponentData,
  {a161cf9f-fba6-4164-b32e-446f63bb4083}, ! Handle
  Component Data 1,                       ! Name
  {0f85ed57-d314-4dfc-8f31-991f4653b9e9}, ! UUID
  {372611ef-0c34-4576-8fdd-0d6218d86b16}, ! Version UUID
  1366310197,                             ! Creation Timestamp
  1366310197,                             ! Version Timestamp
  {63ae0a49-fa79-452e-b236-e8afafbf8473}; ! Name of Object 1

