
OS:Version,
  {dfbe7a28-7e58-404f-bcf8-c39a7fc5273b}, ! Handle
  0.9.3;                                  ! Version Identifier

OS:SizingPeriod:DesignDay,
  {80e6e8e9-e25c-483b-b9d9-ef0c26b457cc}, ! Handle
  Saginaw Tri City Intl Ap Ann Clg 2% Condns DB=>MWB, ! Name
  28.7,                                   ! Maximum Dry-Bulb Temperature {C}
  11.5,                                   ! Daily Dry-Bulb Temperature Range {deltaC}
  21.3,                                   ! Humidity Indicating Conditions at Maximum Dry-Bulb {BasedOnField A3}
  98934,                                  ! Barometric Pressure {Pa}
  5.8,                                    ! Wind Speed {m/s}
  240,                                    ! Wind Direction {deg}
  0,                                      ! Sky Clearness
  0,                                      ! Rain Indicator
  0,                                      ! Snow Indicator
  21,                                     ! Day of Month
  7,                                      ! Month
  SummerDesignDay,                        ! Day Type
  0,                                      ! Daylight Saving Time Indicator
  Wetbulb,                                ! Humidity Indicating Type
  ,                                       ! Humidity Indicating Day Schedule Name
  DefaultMultipliers,                     ! Dry-Bulb Temperature Range Modifier Type
  ,                                       ! Dry-Bulb Temperature Range Modifier Schedule Name
  ASHRAETau,                              ! Solar Model Indicator
  ,                                       ! Beam Solar Day Schedule Name
  ,                                       ! Diffuse Solar Day Schedule Name
  0.435,                                  ! ASHRAE Taub {dimensionless}
  2.102;                                  ! ASHRAE Taud {dimensionless}

OS:ComponentData,
  {baee0cb1-b4ba-4250-ba86-888db78afecd}, ! Handle
  Component Data 1,                       ! Name
  {46db2a36-8195-45bb-9c01-da6cb9cfe477}, ! UUID
  {9ddd32c1-014d-49d4-92a1-a2bf8e2fe340}, ! Version UUID
  1366308097,                             ! Creation Timestamp
  1366308097,                             ! Version Timestamp
  {80e6e8e9-e25c-483b-b9d9-ef0c26b457cc}; ! Name of Object 1

