
OS:Version,
  {76ebf4d3-4d54-4134-a03e-5fd004016ce8}, ! Handle
  0.9.3;                                  ! Version Identifier

OS:SizingPeriod:DesignDay,
  {d00a640f-67a6-48f5-be84-fde3327dfaf0}, ! Handle
  Madison Dane Co Regional Arpt Ann Clg 1% Condns WB=>MDB, ! Name
  28.6,                                   ! Maximum Dry-Bulb Temperature {C}
  11.1,                                   ! Daily Dry-Bulb Temperature Range {deltaC}
  23.9,                                   ! Humidity Indicating Conditions at Maximum Dry-Bulb {BasedOnField A3}
  98217,                                  ! Barometric Pressure {Pa}
  5.1,                                    ! Wind Speed {m/s}
  180,                                    ! Wind Direction {deg}
  0,                                      ! Sky Clearness
  0,                                      ! Rain Indicator
  0,                                      ! Snow Indicator
  21,                                     ! Day of Month
  7,                                      ! Month
  SummerDesignDay,                        ! Day Type
  0,                                      ! Daylight Saving Time Indicator
  Wetbulb,                                ! Humidity Indicating Type
  ,                                       ! Humidity Indicating Day Schedule Name
  DefaultMultipliers,                     ! Dry-Bulb Temperature Range Modifier Type
  ,                                       ! Dry-Bulb Temperature Range Modifier Schedule Name
  ASHRAETau,                              ! Solar Model Indicator
  ,                                       ! Beam Solar Day Schedule Name
  ,                                       ! Diffuse Solar Day Schedule Name
  0.435,                                  ! ASHRAE Taub {dimensionless}
  2.109;                                  ! ASHRAE Taud {dimensionless}

OS:ComponentData,
  {3acb733b-4706-4f66-bea0-98c79b798bba}, ! Handle
  Component Data 1,                       ! Name
  {609825e3-bea3-4040-9665-dfdaf3bd1fa2}, ! UUID
  {21bb4cb7-e69e-4098-b9d3-36e95458c30e}, ! Version UUID
  1366311527,                             ! Creation Timestamp
  1366311527,                             ! Version Timestamp
  {d00a640f-67a6-48f5-be84-fde3327dfaf0}; ! Name of Object 1

