
OS:Version,
  {5830c605-53b8-4a48-9bc5-f26f6e157988}, ! Handle
  0.9.3;                                  ! Version Identifier

OS:SizingPeriod:DesignDay,
  {db45579b-597d-406e-949c-d1554a6083e2}, ! Handle
  Naples Municipal Ann Htg 99% Condns DB, ! Name
  8.6,                                    ! Maximum Dry-Bulb Temperature {C}
  0,                                      ! Daily Dry-Bulb Temperature Range {deltaC}
  8.6,                                    ! Humidity Indicating Conditions at Maximum Dry-Bulb {BasedOnField A3}
  101289,                                 ! Barometric Pressure {Pa}
  2.4,                                    ! Wind Speed {m/s}
  30,                                     ! Wind Direction {deg}
  0,                                      ! Sky Clearness
  0,                                      ! Rain Indicator
  0,                                      ! Snow Indicator
  21,                                     ! Day of Month
  1,                                      ! Month
  WinterDesignDay,                        ! Day Type
  0,                                      ! Daylight Saving Time Indicator
  Wetbulb,                                ! Humidity Indicating Type
  ,                                       ! Humidity Indicating Day Schedule Name
  DefaultMultipliers,                     ! Dry-Bulb Temperature Range Modifier Type
  ,                                       ! Dry-Bulb Temperature Range Modifier Schedule Name
  ASHRAEClearSky;                         ! Solar Model Indicator

OS:ComponentData,
  {d733f718-4af0-46d5-af1e-4b2936e03d7b}, ! Handle
  Component Data 1,                       ! Name
  {0ac015b1-c5dd-4820-8cfb-dfc7b5daa0b5}, ! UUID
  {3e745922-ee3b-4e59-bb5f-1b62322e04b4}, ! Version UUID
  1366306869,                             ! Creation Timestamp
  1366306869,                             ! Version Timestamp
  {db45579b-597d-406e-949c-d1554a6083e2}; ! Name of Object 1

