
OS:Version,
  {9f10ca3f-57ab-474b-b4f8-d1ef88e8c78c}, ! Handle
  0.9.3;                                  ! Version Identifier

OS:SizingPeriod:DesignDay,
  {79b1bfdc-e262-4681-b0a1-e89fab0d47d8}, ! Handle
  OKLAHOMA_CITY Ann Htg Wind 99% Condns WS=>MCDB, ! Name
  5.3,                                    ! Maximum Dry-Bulb Temperature {C}
  0,                                      ! Daily Dry-Bulb Temperature Range {deltaC}
  5.3,                                    ! Humidity Indicating Conditions at Maximum Dry-Bulb {BasedOnField A3}
  96646,                                  ! Barometric Pressure {Pa}
  12.7,                                   ! Wind Speed {m/s}
  0,                                      ! Wind Direction {deg}
  0,                                      ! Sky Clearness
  0,                                      ! Rain Indicator
  0,                                      ! Snow Indicator
  21,                                     ! Day of Month
  1,                                      ! Month
  WinterDesignDay,                        ! Day Type
  0,                                      ! Daylight Saving Time Indicator
  Wetbulb,                                ! Humidity Indicating Type
  ,                                       ! Humidity Indicating Day Schedule Name
  DefaultMultipliers,                     ! Dry-Bulb Temperature Range Modifier Type
  ,                                       ! Dry-Bulb Temperature Range Modifier Schedule Name
  ASHRAEClearSky;                         ! Solar Model Indicator

OS:ComponentData,
  {b6268e51-ca7c-43c7-a442-04fbc556dc2f}, ! Handle
  Component Data 1,                       ! Name
  {9c065f48-a11b-4515-b71c-745440033d5d}, ! UUID
  {4429a2b7-8eae-4c05-8154-af874388180d}, ! Version UUID
  1366309930,                             ! Creation Timestamp
  1366309930,                             ! Version Timestamp
  {79b1bfdc-e262-4681-b0a1-e89fab0d47d8}; ! Name of Object 1

