
OS:Version,
  {60f7c176-2a6e-4e95-899a-7ebba79efccf}, ! Handle
  0.9.3;                                  ! Version Identifier

OS:SizingPeriod:DesignDay,
  {acd1b7d2-4159-4334-8ba1-c9f0b9837d6b}, ! Handle
  Monterey Naf Ann Htg 99% Condns DB,     ! Name
  3.7,                                    ! Maximum Dry-Bulb Temperature {C}
  0,                                      ! Daily Dry-Bulb Temperature Range {deltaC}
  3.7,                                    ! Humidity Indicating Conditions at Maximum Dry-Bulb {BasedOnField A3}
  100726,                                 ! Barometric Pressure {Pa}
  2.4,                                    ! Wind Speed {m/s}
  120,                                    ! Wind Direction {deg}
  0,                                      ! Sky Clearness
  0,                                      ! Rain Indicator
  0,                                      ! Snow Indicator
  21,                                     ! Day of Month
  1,                                      ! Month
  WinterDesignDay,                        ! Day Type
  0,                                      ! Daylight Saving Time Indicator
  Wetbulb,                                ! Humidity Indicating Type
  ,                                       ! Humidity Indicating Day Schedule Name
  DefaultMultipliers,                     ! Dry-Bulb Temperature Range Modifier Type
  ,                                       ! Dry-Bulb Temperature Range Modifier Schedule Name
  ASHRAEClearSky;                         ! Solar Model Indicator

OS:ComponentData,
  {5c98af29-b4cf-4de9-a3ea-ea71436e1bb5}, ! Handle
  Component Data 1,                       ! Name
  {99984673-498a-4ebb-b981-8c59d26af31f}, ! UUID
  {a3570ed6-6384-4a97-b288-b2ddfa2c390c}, ! Version UUID
  1366306497,                             ! Creation Timestamp
  1366306497,                             ! Version Timestamp
  {acd1b7d2-4159-4334-8ba1-c9f0b9837d6b}; ! Name of Object 1

