
OS:Version,
  {441befd7-4404-431d-a4a9-51bea920e532}, ! Handle
  0.9.3;                                  ! Version Identifier

OS:SizingPeriod:DesignDay,
  {431a45cb-24fc-4432-b937-519f55aa206f}, ! Handle
  Wenatchee Pangborn Ann Clg 1% Condns DP=>MDB, ! Name
  24.5,                                   ! Maximum Dry-Bulb Temperature {C}
  13.8,                                   ! Daily Dry-Bulb Temperature Range {deltaC}
  13.6,                                   ! Humidity Indicating Conditions at Maximum Dry-Bulb {BasedOnField A3}
  96854,                                  ! Barometric Pressure {Pa}
  3.6,                                    ! Wind Speed {m/s}
  120,                                    ! Wind Direction {deg}
  0,                                      ! Sky Clearness
  0,                                      ! Rain Indicator
  0,                                      ! Snow Indicator
  21,                                     ! Day of Month
  7,                                      ! Month
  SummerDesignDay,                        ! Day Type
  0,                                      ! Daylight Saving Time Indicator
  Dewpoint,                               ! Humidity Indicating Type
  ,                                       ! Humidity Indicating Day Schedule Name
  DefaultMultipliers,                     ! Dry-Bulb Temperature Range Modifier Type
  ,                                       ! Dry-Bulb Temperature Range Modifier Schedule Name
  ASHRAETau,                              ! Solar Model Indicator
  ,                                       ! Beam Solar Day Schedule Name
  ,                                       ! Diffuse Solar Day Schedule Name
  0.377,                                  ! ASHRAE Taub {dimensionless}
  2.355;                                  ! ASHRAE Taud {dimensionless}

OS:ComponentData,
  {fb4864c2-0af5-4ab7-ada5-f3f52c794c46}, ! Handle
  Component Data 1,                       ! Name
  {09d6ca1d-dc0a-4885-9ecd-dfaeacdc8d1a}, ! UUID
  {6a40ee67-a803-4cc0-8024-80da63bde44b}, ! Version UUID
  1366311427,                             ! Creation Timestamp
  1366311427,                             ! Version Timestamp
  {431a45cb-24fc-4432-b937-519f55aa206f}; ! Name of Object 1

