
OS:Version,
  {450a9056-4c18-4cf2-b922-432b522fabdc}, ! Handle
  0.9.3;                                  ! Version Identifier

OS:SizingPeriod:DesignDay,
  {95955d5a-82da-4dff-9717-8d074d9495be}, ! Handle
  White Plains Westchester Co A Ann Clg .4% Condns DP=>MDB, ! Name
  26.5,                                   ! Maximum Dry-Bulb Temperature {C}
  9.6,                                    ! Daily Dry-Bulb Temperature Range {deltaC}
  23.1,                                   ! Humidity Indicating Conditions at Maximum Dry-Bulb {BasedOnField A3}
  99868,                                  ! Barometric Pressure {Pa}
  3.8,                                    ! Wind Speed {m/s}
  270,                                    ! Wind Direction {deg}
  0,                                      ! Sky Clearness
  0,                                      ! Rain Indicator
  0,                                      ! Snow Indicator
  21,                                     ! Day of Month
  7,                                      ! Month
  SummerDesignDay,                        ! Day Type
  0,                                      ! Daylight Saving Time Indicator
  Dewpoint,                               ! Humidity Indicating Type
  ,                                       ! Humidity Indicating Day Schedule Name
  DefaultMultipliers,                     ! Dry-Bulb Temperature Range Modifier Type
  ,                                       ! Dry-Bulb Temperature Range Modifier Schedule Name
  ASHRAETau,                              ! Solar Model Indicator
  ,                                       ! Beam Solar Day Schedule Name
  ,                                       ! Diffuse Solar Day Schedule Name
  0.506,                                  ! ASHRAE Taub {dimensionless}
  1.88;                                   ! ASHRAE Taud {dimensionless}

OS:ComponentData,
  {c6e3e283-2055-427f-9938-72689be1866a}, ! Handle
  Component Data 1,                       ! Name
  {47e5b6e6-75c6-41f6-b7c3-ca62c21cb803}, ! UUID
  {f42b120a-f157-410d-89ad-22d5cfd5875a}, ! Version UUID
  1366309756,                             ! Creation Timestamp
  1366309756,                             ! Version Timestamp
  {95955d5a-82da-4dff-9717-8d074d9495be}; ! Name of Object 1

