
OS:Version,
  {7a92ed42-2ff0-4c19-a372-547aaaab0085}, ! Handle
  0.9.3;                                  ! Version Identifier

OS:SizingPeriod:DesignDay,
  {61854dee-593a-407c-861a-16ded91c0ef3}, ! Handle
  PORTLAND Ann Clg 1% Condns WB=>MDB,     ! Name
  29.2,                                   ! Maximum Dry-Bulb Temperature {C}
  12.2,                                   ! Daily Dry-Bulb Temperature Range {deltaC}
  19.9,                                   ! Humidity Indicating Conditions at Maximum Dry-Bulb {BasedOnField A3}
  101181,                                 ! Barometric Pressure {Pa}
  4.7,                                    ! Wind Speed {m/s}
  310,                                    ! Wind Direction {deg}
  0,                                      ! Sky Clearness
  0,                                      ! Rain Indicator
  0,                                      ! Snow Indicator
  21,                                     ! Day of Month
  8,                                      ! Month
  SummerDesignDay,                        ! Day Type
  0,                                      ! Daylight Saving Time Indicator
  Wetbulb,                                ! Humidity Indicating Type
  ,                                       ! Humidity Indicating Day Schedule Name
  DefaultMultipliers,                     ! Dry-Bulb Temperature Range Modifier Type
  ,                                       ! Dry-Bulb Temperature Range Modifier Schedule Name
  ASHRAETau,                              ! Solar Model Indicator
  ,                                       ! Beam Solar Day Schedule Name
  ,                                       ! Diffuse Solar Day Schedule Name
  0.358,                                  ! ASHRAE Taub {dimensionless}
  2.549;                                  ! ASHRAE Taud {dimensionless}

OS:ComponentData,
  {c3fa8bc9-df0c-47e0-9ad6-f21d67d9d0f4}, ! Handle
  Component Data 1,                       ! Name
  {c25d9614-dd00-4f46-966c-599d463a50f7}, ! UUID
  {bd559066-9a48-4941-9271-feb52da9d255}, ! Version UUID
  1366310074,                             ! Creation Timestamp
  1366310074,                             ! Version Timestamp
  {61854dee-593a-407c-861a-16ded91c0ef3}; ! Name of Object 1

