
OS:Version,
  {643a39be-e1a7-471c-ac02-1890d177dfb5}, ! Handle
  0.9.3;                                  ! Version Identifier

OS:SizingPeriod:DesignDay,
  {ccc97646-b342-4d64-abae-266a2df68381}, ! Handle
  Wichita Falls/Sheppard Ann Clg .4% Condns Enth=>MDB, ! Name
  33.4,                                   ! Maximum Dry-Bulb Temperature {C}
  13,                                     ! Daily Dry-Bulb Temperature Range {deltaC}
  79500,                                  ! Humidity Indicating Conditions at Maximum Dry-Bulb {BasedOnField A3}
  97609,                                  ! Barometric Pressure {Pa}
  5.5,                                    ! Wind Speed {m/s}
  180,                                    ! Wind Direction {deg}
  0,                                      ! Sky Clearness
  0,                                      ! Rain Indicator
  0,                                      ! Snow Indicator
  21,                                     ! Day of Month
  7,                                      ! Month
  SummerDesignDay,                        ! Day Type
  0,                                      ! Daylight Saving Time Indicator
  Enthalpy,                               ! Humidity Indicating Type
  ,                                       ! Humidity Indicating Day Schedule Name
  DefaultMultipliers,                     ! Dry-Bulb Temperature Range Modifier Type
  ,                                       ! Dry-Bulb Temperature Range Modifier Schedule Name
  ASHRAETau,                              ! Solar Model Indicator
  ,                                       ! Beam Solar Day Schedule Name
  ,                                       ! Diffuse Solar Day Schedule Name
  0.44,                                   ! ASHRAE Taub {dimensionless}
  2.15;                                   ! ASHRAE Taud {dimensionless}

OS:ComponentData,
  {2da3e600-3ac5-4d1e-895b-48a62748a18a}, ! Handle
  Component Data 1,                       ! Name
  {39319055-1144-4a81-a897-39c0e81336de}, ! UUID
  {cbe262fd-bdeb-4ae3-928e-9aae851e90ad}, ! Version UUID
  1366310933,                             ! Creation Timestamp
  1366310933,                             ! Version Timestamp
  {ccc97646-b342-4d64-abae-266a2df68381}; ! Name of Object 1

