
OS:Version,
  {e22de1f9-fcba-4312-a47a-03b1a686038b}, ! Handle
  0.9.3;                                  ! Version Identifier

OS:SizingPeriod:DesignDay,
  {b288cad7-02c4-47b8-86e9-7f365b0297a6}, ! Handle
  San Francisco Intl Ap Ann Clg .4% Condns DB=>MWB, ! Name
  28.3,                                   ! Maximum Dry-Bulb Temperature {C}
  8.5,                                    ! Daily Dry-Bulb Temperature Range {deltaC}
  17.2,                                   ! Humidity Indicating Conditions at Maximum Dry-Bulb {BasedOnField A3}
  101301,                                 ! Barometric Pressure {Pa}
  5.9,                                    ! Wind Speed {m/s}
  310,                                    ! Wind Direction {deg}
  0,                                      ! Sky Clearness
  0,                                      ! Rain Indicator
  0,                                      ! Snow Indicator
  21,                                     ! Day of Month
  8,                                      ! Month
  SummerDesignDay,                        ! Day Type
  0,                                      ! Daylight Saving Time Indicator
  Wetbulb,                                ! Humidity Indicating Type
  ,                                       ! Humidity Indicating Day Schedule Name
  DefaultMultipliers,                     ! Dry-Bulb Temperature Range Modifier Type
  ,                                       ! Dry-Bulb Temperature Range Modifier Schedule Name
  ASHRAETau,                              ! Solar Model Indicator
  ,                                       ! Beam Solar Day Schedule Name
  ,                                       ! Diffuse Solar Day Schedule Name
  0.365,                                  ! ASHRAE Taub {dimensionless}
  2.435;                                  ! ASHRAE Taud {dimensionless}

OS:ComponentData,
  {231fd204-c720-4b5d-ab78-e672822181f2}, ! Handle
  Component Data 1,                       ! Name
  {6f69df1c-72d9-4c15-8613-3bd97499ae86}, ! UUID
  {580000b6-e62a-490c-a870-f9c48efa0328}, ! Version UUID
  1366306595,                             ! Creation Timestamp
  1366306595,                             ! Version Timestamp
  {b288cad7-02c4-47b8-86e9-7f365b0297a6}; ! Name of Object 1

