
OS:Version,
  {9546e5ab-1c0e-46c4-a634-4df700e3e357}, ! Handle
  0.9.3;                                  ! Version Identifier

OS:SizingPeriod:DesignDay,
  {595acd83-68ab-4cc2-820a-2dab28c5a373}, ! Handle
  Scottsbluff Ann Htg Wind 99% Condns WS=>MCDB, ! Name
  4.5,                                    ! Maximum Dry-Bulb Temperature {C}
  0,                                      ! Daily Dry-Bulb Temperature Range {deltaC}
  4.5,                                    ! Humidity Indicating Conditions at Maximum Dry-Bulb {BasedOnField A3}
  87651,                                  ! Barometric Pressure {Pa}
  13.2,                                   ! Wind Speed {m/s}
  300,                                    ! Wind Direction {deg}
  0,                                      ! Sky Clearness
  0,                                      ! Rain Indicator
  0,                                      ! Snow Indicator
  21,                                     ! Day of Month
  12,                                     ! Month
  WinterDesignDay,                        ! Day Type
  0,                                      ! Daylight Saving Time Indicator
  Wetbulb,                                ! Humidity Indicating Type
  ,                                       ! Humidity Indicating Day Schedule Name
  DefaultMultipliers,                     ! Dry-Bulb Temperature Range Modifier Type
  ,                                       ! Dry-Bulb Temperature Range Modifier Schedule Name
  ASHRAEClearSky;                         ! Solar Model Indicator

OS:ComponentData,
  {54108abd-093e-4f7c-97b3-25e351e96991}, ! Handle
  Component Data 1,                       ! Name
  {21fefc7a-64c0-432e-a3d2-b8e6a563a565}, ! UUID
  {01ae3d03-6958-4717-9386-2b901893679b}, ! Version UUID
  1366309190,                             ! Creation Timestamp
  1366309190,                             ! Version Timestamp
  {595acd83-68ab-4cc2-820a-2dab28c5a373}; ! Name of Object 1

