
OS:Version,
  {64001f78-fdc5-4606-9567-c84af71e7917}, ! Handle
  0.9.3;                                  ! Version Identifier

OS:SizingPeriod:DesignDay,
  {4fae083b-ca43-4f26-a5a3-40cf07e51f88}, ! Handle
  Rogers  Awos Ann Clg 1% Condns DB=>MWB, ! Name
  32.8,                                   ! Maximum Dry-Bulb Temperature {C}
  9.9,                                    ! Daily Dry-Bulb Temperature Range {deltaC}
  22.9,                                   ! Humidity Indicating Conditions at Maximum Dry-Bulb {BasedOnField A3}
  96438,                                  ! Barometric Pressure {Pa}
  3.7,                                    ! Wind Speed {m/s}
  240,                                    ! Wind Direction {deg}
  0,                                      ! Sky Clearness
  0,                                      ! Rain Indicator
  0,                                      ! Snow Indicator
  21,                                     ! Day of Month
  7,                                      ! Month
  SummerDesignDay,                        ! Day Type
  0,                                      ! Daylight Saving Time Indicator
  Wetbulb,                                ! Humidity Indicating Type
  ,                                       ! Humidity Indicating Day Schedule Name
  DefaultMultipliers,                     ! Dry-Bulb Temperature Range Modifier Type
  ,                                       ! Dry-Bulb Temperature Range Modifier Schedule Name
  ASHRAETau,                              ! Solar Model Indicator
  ,                                       ! Beam Solar Day Schedule Name
  ,                                       ! Diffuse Solar Day Schedule Name
  0.453,                                  ! ASHRAE Taub {dimensionless}
  2.083;                                  ! ASHRAE Taud {dimensionless}

OS:ComponentData,
  {2262f289-d1c8-44c5-b81c-0913a956bcf2}, ! Handle
  Component Data 1,                       ! Name
  {fdaa24b6-5440-4e01-aa5a-08f4ffdd83ef}, ! UUID
  {5ddf9eac-1c6e-48f5-b5de-f6e08442b319}, ! Version UUID
  1366306243,                             ! Creation Timestamp
  1366306243,                             ! Version Timestamp
  {4fae083b-ca43-4f26-a5a3-40cf07e51f88}; ! Name of Object 1

