
OS:Version,
  {31cccbf0-cfa1-4499-bca3-d482672a82fa}, ! Handle
  0.9.3;                                  ! Version Identifier

OS:SizingPeriod:DesignDay,
  {7201671c-8e13-49c6-91d4-7e8ea7422a55}, ! Handle
  Pocatello Regional Ap Ann Clg 1% Condns Enth=>MDB, ! Name
  28.9,                                   ! Maximum Dry-Bulb Temperature {C}
  18.7,                                   ! Daily Dry-Bulb Temperature Range {deltaC}
  54500,                                  ! Humidity Indicating Conditions at Maximum Dry-Bulb {BasedOnField A3}
  86092,                                  ! Barometric Pressure {Pa}
  4.8,                                    ! Wind Speed {m/s}
  240,                                    ! Wind Direction {deg}
  0,                                      ! Sky Clearness
  0,                                      ! Rain Indicator
  0,                                      ! Snow Indicator
  21,                                     ! Day of Month
  7,                                      ! Month
  SummerDesignDay,                        ! Day Type
  0,                                      ! Daylight Saving Time Indicator
  Enthalpy,                               ! Humidity Indicating Type
  ,                                       ! Humidity Indicating Day Schedule Name
  DefaultMultipliers,                     ! Dry-Bulb Temperature Range Modifier Type
  ,                                       ! Dry-Bulb Temperature Range Modifier Schedule Name
  ASHRAETau,                              ! Solar Model Indicator
  ,                                       ! Beam Solar Day Schedule Name
  ,                                       ! Diffuse Solar Day Schedule Name
  0.416,                                  ! ASHRAE Taub {dimensionless}
  2.003;                                  ! ASHRAE Taud {dimensionless}

OS:ComponentData,
  {8ab34e09-e323-43d4-95ff-a9ad7fb14455}, ! Handle
  Component Data 1,                       ! Name
  {b7d3bbf2-63cf-4d24-9070-65ff5adbf22a}, ! UUID
  {4c318d20-195c-4b45-83df-ffd10f4c86e2}, ! Version UUID
  1366307308,                             ! Creation Timestamp
  1366307308,                             ! Version Timestamp
  {7201671c-8e13-49c6-91d4-7e8ea7422a55}; ! Name of Object 1

