
OS:Version,
  {20739def-7bd1-434d-8027-07143d532bc7}, ! Handle
  0.9.3;                                  ! Version Identifier

OS:SizingPeriod:DesignDay,
  {b4bfd576-0880-4819-8139-ce5685af5695}, ! Handle
  NORFOLK Ann Htg 99.6% Condns DB,        ! Name
  -22.5,                                  ! Maximum Dry-Bulb Temperature {C}
  0,                                      ! Daily Dry-Bulb Temperature Range {deltaC}
  -22.5,                                  ! Humidity Indicating Conditions at Maximum Dry-Bulb {BasedOnField A3}
  95793,                                  ! Barometric Pressure {Pa}
  4.9,                                    ! Wind Speed {m/s}
  320,                                    ! Wind Direction {deg}
  0,                                      ! Sky Clearness
  0,                                      ! Rain Indicator
  0,                                      ! Snow Indicator
  21,                                     ! Day of Month
  1,                                      ! Month
  WinterDesignDay,                        ! Day Type
  0,                                      ! Daylight Saving Time Indicator
  Wetbulb,                                ! Humidity Indicating Type
  ,                                       ! Humidity Indicating Day Schedule Name
  DefaultMultipliers,                     ! Dry-Bulb Temperature Range Modifier Type
  ,                                       ! Dry-Bulb Temperature Range Modifier Schedule Name
  ASHRAEClearSky;                         ! Solar Model Indicator

OS:ComponentData,
  {57fec44a-82ae-4ef8-aed0-924971b85763}, ! Handle
  Component Data 1,                       ! Name
  {3585df36-7499-4073-a0ec-20f3d6fc0d72}, ! UUID
  {6d55455a-63d7-44de-be0e-b6542b104b5a}, ! Version UUID
  1366309152,                             ! Creation Timestamp
  1366309152,                             ! Version Timestamp
  {b4bfd576-0880-4819-8139-ce5685af5695}; ! Name of Object 1

