
OS:Version,
  {c429a6a4-caf2-406e-ad13-c9f2e13fbebc}, ! Handle
  0.9.3;                                  ! Version Identifier

OS:SizingPeriod:DesignDay,
  {13a50e47-753a-40bd-af25-4a0116f70acf}, ! Handle
  MUSKEGON Ann Hum_n 99.6% Condns DP=>MCDB, ! Name
  -14.2,                                  ! Maximum Dry-Bulb Temperature {C}
  0,                                      ! Daily Dry-Bulb Temperature Range {deltaC}
  -19,                                    ! Humidity Indicating Conditions at Maximum Dry-Bulb {BasedOnField A3}
  99051,                                  ! Barometric Pressure {Pa}
  4.5,                                    ! Wind Speed {m/s}
  310,                                    ! Wind Direction {deg}
  0,                                      ! Sky Clearness
  0,                                      ! Rain Indicator
  0,                                      ! Snow Indicator
  21,                                     ! Day of Month
  1,                                      ! Month
  WinterDesignDay,                        ! Day Type
  0,                                      ! Daylight Saving Time Indicator
  Dewpoint,                               ! Humidity Indicating Type
  ,                                       ! Humidity Indicating Day Schedule Name
  DefaultMultipliers,                     ! Dry-Bulb Temperature Range Modifier Type
  ,                                       ! Dry-Bulb Temperature Range Modifier Schedule Name
  ASHRAEClearSky;                         ! Solar Model Indicator

OS:ComponentData,
  {356770b0-d02b-477c-ad6d-a46ff8f6e297}, ! Handle
  Component Data 1,                       ! Name
  {7079faca-9596-4c48-ba55-d831381f9630}, ! UUID
  {ff3f63f4-1880-4096-a35b-011d51bf0f51}, ! Version UUID
  1366308071,                             ! Creation Timestamp
  1366308071,                             ! Version Timestamp
  {13a50e47-753a-40bd-af25-4a0116f70acf}; ! Name of Object 1

