
OS:Version,
  {889518bf-2c81-4033-8546-4f31ca9a4822}, ! Handle
  0.9.3;                                  ! Version Identifier

OS:SizingPeriod:DesignDay,
  {2e59c7cf-d98d-4b04-aedd-a3e636cf054c}, ! Handle
  New Ulm Muni  Awos Ann Clg 2% Condns DP=>MDB, ! Name
  26.2,                                   ! Maximum Dry-Bulb Temperature {C}
  10.3,                                   ! Daily Dry-Bulb Temperature Range {deltaC}
  22.2,                                   ! Humidity Indicating Conditions at Maximum Dry-Bulb {BasedOnField A3}
  97679,                                  ! Barometric Pressure {Pa}
  5.8,                                    ! Wind Speed {m/s}
  190,                                    ! Wind Direction {deg}
  0,                                      ! Sky Clearness
  0,                                      ! Rain Indicator
  0,                                      ! Snow Indicator
  21,                                     ! Day of Month
  7,                                      ! Month
  SummerDesignDay,                        ! Day Type
  0,                                      ! Daylight Saving Time Indicator
  Dewpoint,                               ! Humidity Indicating Type
  ,                                       ! Humidity Indicating Day Schedule Name
  DefaultMultipliers,                     ! Dry-Bulb Temperature Range Modifier Type
  ,                                       ! Dry-Bulb Temperature Range Modifier Schedule Name
  ASHRAETau,                              ! Solar Model Indicator
  ,                                       ! Beam Solar Day Schedule Name
  ,                                       ! Diffuse Solar Day Schedule Name
  0.405,                                  ! ASHRAE Taub {dimensionless}
  2.234;                                  ! ASHRAE Taud {dimensionless}

OS:ComponentData,
  {1164d9a9-7424-4d17-90d8-aa7370c11a6f}, ! Handle
  Component Data 1,                       ! Name
  {a06e4b98-f56e-4241-91d0-87843d55bd88}, ! UUID
  {5a7587c2-3bcb-400e-8519-3c70b9a0afff}, ! Version UUID
  1366308343,                             ! Creation Timestamp
  1366308343,                             ! Version Timestamp
  {2e59c7cf-d98d-4b04-aedd-a3e636cf054c}; ! Name of Object 1

