
OS:Version,
  {f12d2a84-3665-4ab1-ac02-6adad0726e9d}, ! Handle
  0.9.3;                                  ! Version Identifier

OS:SizingPeriod:DesignDay,
  {549e42e9-0400-4c09-8e9a-6080ee0c91df}, ! Handle
  Rapid City Regional Arpt Ann Clg 1% Condns WB=>MDB, ! Name
  29.4,                                   ! Maximum Dry-Bulb Temperature {C}
  14.8,                                   ! Daily Dry-Bulb Temperature Range {deltaC}
  20.7,                                   ! Humidity Indicating Conditions at Maximum Dry-Bulb {BasedOnField A3}
  90279,                                  ! Barometric Pressure {Pa}
  6,                                      ! Wind Speed {m/s}
  180,                                    ! Wind Direction {deg}
  0,                                      ! Sky Clearness
  0,                                      ! Rain Indicator
  0,                                      ! Snow Indicator
  21,                                     ! Day of Month
  7,                                      ! Month
  SummerDesignDay,                        ! Day Type
  0,                                      ! Daylight Saving Time Indicator
  Wetbulb,                                ! Humidity Indicating Type
  ,                                       ! Humidity Indicating Day Schedule Name
  DefaultMultipliers,                     ! Dry-Bulb Temperature Range Modifier Type
  ,                                       ! Dry-Bulb Temperature Range Modifier Schedule Name
  ASHRAETau,                              ! Solar Model Indicator
  ,                                       ! Beam Solar Day Schedule Name
  ,                                       ! Diffuse Solar Day Schedule Name
  0.41,                                   ! ASHRAE Taub {dimensionless}
  2.134;                                  ! ASHRAE Taud {dimensionless}

OS:ComponentData,
  {dfe21424-8bf7-414d-8a0d-ce70f9ccacb2}, ! Handle
  Component Data 1,                       ! Name
  {3e1d9b3b-c392-4851-a8c9-eefde135d904}, ! UUID
  {ed1730b5-6d74-49bc-8530-ba64c27dad5a}, ! Version UUID
  1366310450,                             ! Creation Timestamp
  1366310450,                             ! Version Timestamp
  {549e42e9-0400-4c09-8e9a-6080ee0c91df}; ! Name of Object 1

