
OS:Version,
  {a2652455-f3a1-4e4b-9fd2-767db8ec1ec4}, ! Handle
  0.9.3;                                  ! Version Identifier

OS:SizingPeriod:DesignDay,
  {19244394-04b8-49c9-befd-0a17fc8073eb}, ! Handle
  St Louis Lambert IntL Arpt Ann Hum_n 99% Condns DP=>MCDB, ! Name
  -10.6,                                  ! Maximum Dry-Bulb Temperature {C}
  0,                                      ! Daily Dry-Bulb Temperature Range {deltaC}
  -17.9,                                  ! Humidity Indicating Conditions at Maximum Dry-Bulb {BasedOnField A3}
  99264,                                  ! Barometric Pressure {Pa}
  4.7,                                    ! Wind Speed {m/s}
  300,                                    ! Wind Direction {deg}
  0,                                      ! Sky Clearness
  0,                                      ! Rain Indicator
  0,                                      ! Snow Indicator
  21,                                     ! Day of Month
  1,                                      ! Month
  WinterDesignDay,                        ! Day Type
  0,                                      ! Daylight Saving Time Indicator
  Dewpoint,                               ! Humidity Indicating Type
  ,                                       ! Humidity Indicating Day Schedule Name
  DefaultMultipliers,                     ! Dry-Bulb Temperature Range Modifier Type
  ,                                       ! Dry-Bulb Temperature Range Modifier Schedule Name
  ASHRAEClearSky;                         ! Solar Model Indicator

OS:ComponentData,
  {2267c666-9b50-42b7-a8fd-a936d6c1454f}, ! Handle
  Component Data 1,                       ! Name
  {769bb6cc-015e-4af6-b284-9e004bcae6d1}, ! UUID
  {f2592f96-0363-4f15-b56f-28aab92b8e78}, ! Version UUID
  1366308584,                             ! Creation Timestamp
  1366308584,                             ! Version Timestamp
  {19244394-04b8-49c9-befd-0a17fc8073eb}; ! Name of Object 1

