
OS:Version,
  {61473c44-b7db-47b3-8258-ab69f7fdf50b}, ! Handle
  0.9.3;                                  ! Version Identifier

OS:SizingPeriod:DesignDay,
  {4723dab8-c2ba-492d-925c-d2bc95eafaba}, ! Handle
  Mc Gregor  Awos Ann Clg 1% Condns DP=>MDB, ! Name
  28.2,                                   ! Maximum Dry-Bulb Temperature {C}
  12.2,                                   ! Daily Dry-Bulb Temperature Range {deltaC}
  23.7,                                   ! Humidity Indicating Conditions at Maximum Dry-Bulb {BasedOnField A3}
  99181,                                  ! Barometric Pressure {Pa}
  4.4,                                    ! Wind Speed {m/s}
  170,                                    ! Wind Direction {deg}
  0,                                      ! Sky Clearness
  0,                                      ! Rain Indicator
  0,                                      ! Snow Indicator
  21,                                     ! Day of Month
  7,                                      ! Month
  SummerDesignDay,                        ! Day Type
  0,                                      ! Daylight Saving Time Indicator
  Dewpoint,                               ! Humidity Indicating Type
  ,                                       ! Humidity Indicating Day Schedule Name
  DefaultMultipliers,                     ! Dry-Bulb Temperature Range Modifier Type
  ,                                       ! Dry-Bulb Temperature Range Modifier Schedule Name
  ASHRAETau,                              ! Solar Model Indicator
  ,                                       ! Beam Solar Day Schedule Name
  ,                                       ! Diffuse Solar Day Schedule Name
  0.456,                                  ! ASHRAE Taub {dimensionless}
  2.109;                                  ! ASHRAE Taud {dimensionless}

OS:ComponentData,
  {05772419-f204-4c64-9bc1-97623c6200eb}, ! Handle
  Component Data 1,                       ! Name
  {a253e173-4aa5-40a7-ad52-87d94cf072f3}, ! UUID
  {c201c6d9-8e20-4fe3-86bb-76ff204d7605}, ! Version UUID
  1366310824,                             ! Creation Timestamp
  1366310824,                             ! Version Timestamp
  {4723dab8-c2ba-492d-925c-d2bc95eafaba}; ! Name of Object 1

