
OS:Version,
  {7da4af58-eedb-4ae7-9c37-437a0e44a2e5}, ! Handle
  0.9.3;                                  ! Version Identifier

OS:SizingPeriod:DesignDay,
  {519d1aa5-8be9-48fb-be6c-4b2389af260e}, ! Handle
  San Antonio/Randolph A Ann Hum_n 99.6% Condns DP=>MCDB, ! Name
  3.8,                                    ! Maximum Dry-Bulb Temperature {C}
  0,                                      ! Daily Dry-Bulb Temperature Range {deltaC}
  -12,                                    ! Humidity Indicating Conditions at Maximum Dry-Bulb {BasedOnField A3}
  98569,                                  ! Barometric Pressure {Pa}
  3.7,                                    ! Wind Speed {m/s}
  10,                                     ! Wind Direction {deg}
  0,                                      ! Sky Clearness
  0,                                      ! Rain Indicator
  0,                                      ! Snow Indicator
  21,                                     ! Day of Month
  1,                                      ! Month
  WinterDesignDay,                        ! Day Type
  0,                                      ! Daylight Saving Time Indicator
  Dewpoint,                               ! Humidity Indicating Type
  ,                                       ! Humidity Indicating Day Schedule Name
  DefaultMultipliers,                     ! Dry-Bulb Temperature Range Modifier Type
  ,                                       ! Dry-Bulb Temperature Range Modifier Schedule Name
  ASHRAEClearSky;                         ! Solar Model Indicator

OS:ComponentData,
  {4d710b29-e034-4d2d-ad14-01d7e41c39db}, ! Handle
  Component Data 1,                       ! Name
  {c3a5ef88-986e-469c-9a87-90962d5d6872}, ! UUID
  {1826ae4d-1441-4265-8b62-a4a048c8ba17}, ! Version UUID
  1366310893,                             ! Creation Timestamp
  1366310893,                             ! Version Timestamp
  {519d1aa5-8be9-48fb-be6c-4b2389af260e}; ! Name of Object 1

