
OS:Version,
  {7104b542-d39a-4e76-acf4-727bead8c42d}, ! Handle
  0.9.3;                                  ! Version Identifier

OS:SizingPeriod:DesignDay,
  {6e714989-1029-4be2-8a90-de6e1e692556}, ! Handle
  TAMPA Ann Clg 2% Condns Enth=>MDB,      ! Name
  30.5,                                   ! Maximum Dry-Bulb Temperature {C}
  7.9,                                    ! Daily Dry-Bulb Temperature Range {deltaC}
  80900,                                  ! Humidity Indicating Conditions at Maximum Dry-Bulb {BasedOnField A3}
  101289,                                 ! Barometric Pressure {Pa}
  3.9,                                    ! Wind Speed {m/s}
  260,                                    ! Wind Direction {deg}
  0,                                      ! Sky Clearness
  0,                                      ! Rain Indicator
  0,                                      ! Snow Indicator
  21,                                     ! Day of Month
  8,                                      ! Month
  SummerDesignDay,                        ! Day Type
  0,                                      ! Daylight Saving Time Indicator
  Enthalpy,                               ! Humidity Indicating Type
  ,                                       ! Humidity Indicating Day Schedule Name
  DefaultMultipliers,                     ! Dry-Bulb Temperature Range Modifier Type
  ,                                       ! Dry-Bulb Temperature Range Modifier Schedule Name
  ASHRAETau,                              ! Solar Model Indicator
  ,                                       ! Beam Solar Day Schedule Name
  ,                                       ! Diffuse Solar Day Schedule Name
  0.493,                                  ! ASHRAE Taub {dimensionless}
  2.01;                                   ! ASHRAE Taud {dimensionless}

