
OS:Version,
  {883b0fa6-d187-4147-b2ab-bbc3384d2ecc}, ! Handle
  0.9.3;                                  ! Version Identifier

OS:SizingPeriod:DesignDay,
  {3a55e3e2-cbe7-417f-862b-60d0c12ffbff}, ! Handle
  ROCHESTER Ann Clg 1% Condns DB=>MWB,    ! Name
  29.5,                                   ! Maximum Dry-Bulb Temperature {C}
  10.6,                                   ! Daily Dry-Bulb Temperature Range {deltaC}
  22.2,                                   ! Humidity Indicating Conditions at Maximum Dry-Bulb {BasedOnField A3}
  96588,                                  ! Barometric Pressure {Pa}
  6.7,                                    ! Wind Speed {m/s}
  200,                                    ! Wind Direction {deg}
  0,                                      ! Sky Clearness
  0,                                      ! Rain Indicator
  0,                                      ! Snow Indicator
  21,                                     ! Day of Month
  7,                                      ! Month
  SummerDesignDay,                        ! Day Type
  0,                                      ! Daylight Saving Time Indicator
  Wetbulb,                                ! Humidity Indicating Type
  ,                                       ! Humidity Indicating Day Schedule Name
  DefaultMultipliers,                     ! Dry-Bulb Temperature Range Modifier Type
  ,                                       ! Dry-Bulb Temperature Range Modifier Schedule Name
  ASHRAETau,                              ! Solar Model Indicator
  ,                                       ! Beam Solar Day Schedule Name
  ,                                       ! Diffuse Solar Day Schedule Name
  0.404,                                  ! ASHRAE Taub {dimensionless}
  2.226;                                  ! ASHRAE Taud {dimensionless}

OS:ComponentData,
  {0080ade0-85fe-4cdf-ae7a-11288e105003}, ! Handle
  Component Data 1,                       ! Name
  {b0ef63d2-2ab2-4a55-8482-e6a7770d7698}, ! UUID
  {19530670-32f7-4b46-8346-c836074b0b17}, ! Version UUID
  1366308387,                             ! Creation Timestamp
  1366308387,                             ! Version Timestamp
  {3a55e3e2-cbe7-417f-862b-60d0c12ffbff}; ! Name of Object 1

