
OS:Version,
  {add184eb-9ea9-48f2-853e-25aeaff35420}, ! Handle
  0.9.3;                                  ! Version Identifier

OS:SizingPeriod:DesignDay,
  {0f76521d-5939-4d04-ae20-a5d329e072f9}, ! Handle
  Port Arthur Jefferson County Ann Clg 1% Condns DB=>MWB, ! Name
  33.7,                                   ! Maximum Dry-Bulb Temperature {C}
  8.9,                                    ! Daily Dry-Bulb Temperature Range {deltaC}
  25.7,                                   ! Humidity Indicating Conditions at Maximum Dry-Bulb {BasedOnField A3}
  101265,                                 ! Barometric Pressure {Pa}
  3.6,                                    ! Wind Speed {m/s}
  200,                                    ! Wind Direction {deg}
  0,                                      ! Sky Clearness
  0,                                      ! Rain Indicator
  0,                                      ! Snow Indicator
  21,                                     ! Day of Month
  7,                                      ! Month
  SummerDesignDay,                        ! Day Type
  0,                                      ! Daylight Saving Time Indicator
  Wetbulb,                                ! Humidity Indicating Type
  ,                                       ! Humidity Indicating Day Schedule Name
  DefaultMultipliers,                     ! Dry-Bulb Temperature Range Modifier Type
  ,                                       ! Dry-Bulb Temperature Range Modifier Schedule Name
  ASHRAETau,                              ! Solar Model Indicator
  ,                                       ! Beam Solar Day Schedule Name
  ,                                       ! Diffuse Solar Day Schedule Name
  0.515,                                  ! ASHRAE Taub {dimensionless}
  1.943;                                  ! ASHRAE Taud {dimensionless}

OS:ComponentData,
  {5cf6f545-3126-481c-9a37-ba72ad04e7dd}, ! Handle
  Component Data 1,                       ! Name
  {63e21634-51cf-4cb8-820e-bec3a3618427}, ! UUID
  {69f51ba2-0fd0-492d-b866-e3ecb97af0fe}, ! Version UUID
  1366310856,                             ! Creation Timestamp
  1366310856,                             ! Version Timestamp
  {0f76521d-5939-4d04-ae20-a5d329e072f9}; ! Name of Object 1

