
OS:Version,
  {82c2e645-7bf7-4853-83e5-bb76abd3f42a}, ! Handle
  0.9.3;                                  ! Version Identifier

OS:SizingPeriod:DesignDay,
  {948eec0e-f368-4a40-9751-60042d60174a}, ! Handle
  Montpelier Ap Ann Clg .4% Condns WB=>MDB, ! Name
  27.5,                                   ! Maximum Dry-Bulb Temperature {C}
  11.3,                                   ! Daily Dry-Bulb Temperature Range {deltaC}
  22.6,                                   ! Humidity Indicating Conditions at Maximum Dry-Bulb {BasedOnField A3}
  97272,                                  ! Barometric Pressure {Pa}
  3.8,                                    ! Wind Speed {m/s}
  220,                                    ! Wind Direction {deg}
  0,                                      ! Sky Clearness
  0,                                      ! Rain Indicator
  0,                                      ! Snow Indicator
  21,                                     ! Day of Month
  7,                                      ! Month
  SummerDesignDay,                        ! Day Type
  0,                                      ! Daylight Saving Time Indicator
  Wetbulb,                                ! Humidity Indicating Type
  ,                                       ! Humidity Indicating Day Schedule Name
  DefaultMultipliers,                     ! Dry-Bulb Temperature Range Modifier Type
  ,                                       ! Dry-Bulb Temperature Range Modifier Schedule Name
  ASHRAETau,                              ! Solar Model Indicator
  ,                                       ! Beam Solar Day Schedule Name
  ,                                       ! Diffuse Solar Day Schedule Name
  0.435,                                  ! ASHRAE Taub {dimensionless}
  2.069;                                  ! ASHRAE Taud {dimensionless}

OS:ComponentData,
  {9e53427c-e42b-4c22-9680-6aef19b90646}, ! Handle
  Component Data 1,                       ! Name
  {d0c7476b-bb88-4ceb-9be8-9a01634b220f}, ! UUID
  {3eddb102-c016-4f25-a1ed-ab95f1047594}, ! Version UUID
  1366311251,                             ! Creation Timestamp
  1366311251,                             ! Version Timestamp
  {948eec0e-f368-4a40-9751-60042d60174a}; ! Name of Object 1

