
OS:Version,
  {33100f48-84bd-4a73-b5d6-c21fee9417a0}, ! Handle
  0.9.3;                                  ! Version Identifier

OS:SizingPeriod:DesignDay,
  {3df40ec8-bdc6-4761-8f45-a15129054cf6}, ! Handle
  Minneapolis St Paul IntL Arp Ann Clg .4% Condns Enth=>MDB, ! Name
  30.9,                                   ! Maximum Dry-Bulb Temperature {C}
  9.9,                                    ! Daily Dry-Bulb Temperature Range {deltaC}
  77300,                                  ! Humidity Indicating Conditions at Maximum Dry-Bulb {BasedOnField A3}
  98311,                                  ! Barometric Pressure {Pa}
  6,                                      ! Wind Speed {m/s}
  180,                                    ! Wind Direction {deg}
  0,                                      ! Sky Clearness
  0,                                      ! Rain Indicator
  0,                                      ! Snow Indicator
  21,                                     ! Day of Month
  7,                                      ! Month
  SummerDesignDay,                        ! Day Type
  0,                                      ! Daylight Saving Time Indicator
  Enthalpy,                               ! Humidity Indicating Type
  ,                                       ! Humidity Indicating Day Schedule Name
  DefaultMultipliers,                     ! Dry-Bulb Temperature Range Modifier Type
  ,                                       ! Dry-Bulb Temperature Range Modifier Schedule Name
  ASHRAETau,                              ! Solar Model Indicator
  ,                                       ! Beam Solar Day Schedule Name
  ,                                       ! Diffuse Solar Day Schedule Name
  0.416,                                  ! ASHRAE Taub {dimensionless}
  2.18;                                   ! ASHRAE Taud {dimensionless}

