
OS:Version,
  {db3a94ad-68ef-44a6-a239-ffc8c7b238e5}, ! Handle
  0.9.3;                                  ! Version Identifier

OS:SizingPeriod:DesignDay,
  {4d7d6afe-5647-403f-bbaf-0e49addc6aed}, ! Handle
  Minneapolis St Paul IntL Arp Ann Clg .4% Condns Enth=>MDB, ! Name
  30.9,                                   ! Maximum Dry-Bulb Temperature {C}
  9.9,                                    ! Daily Dry-Bulb Temperature Range {deltaC}
  77300,                                  ! Humidity Indicating Conditions at Maximum Dry-Bulb {BasedOnField A3}
  98311,                                  ! Barometric Pressure {Pa}
  6,                                      ! Wind Speed {m/s}
  180,                                    ! Wind Direction {deg}
  0,                                      ! Sky Clearness
  0,                                      ! Rain Indicator
  0,                                      ! Snow Indicator
  21,                                     ! Day of Month
  7,                                      ! Month
  SummerDesignDay,                        ! Day Type
  0,                                      ! Daylight Saving Time Indicator
  Enthalpy,                               ! Humidity Indicating Type
  ,                                       ! Humidity Indicating Day Schedule Name
  DefaultMultipliers,                     ! Dry-Bulb Temperature Range Modifier Type
  ,                                       ! Dry-Bulb Temperature Range Modifier Schedule Name
  ASHRAETau,                              ! Solar Model Indicator
  ,                                       ! Beam Solar Day Schedule Name
  ,                                       ! Diffuse Solar Day Schedule Name
  0.416,                                  ! ASHRAE Taub {dimensionless}
  2.18;                                   ! ASHRAE Taud {dimensionless}

OS:ComponentData,
  {4fa79e5a-d33b-4e28-830b-411c562f7909}, ! Handle
  Component Data 1,                       ! Name
  {7d413e55-0d7b-4432-a757-eb9e9c929dd1}, ! UUID
  {305492dd-46e0-4686-a893-d51db42330f3}, ! Version UUID
  1366308325,                             ! Creation Timestamp
  1366308325,                             ! Version Timestamp
  {4d7d6afe-5647-403f-bbaf-0e49addc6aed}; ! Name of Object 1

