
OS:Version,
  {fb274910-759b-4adc-8b32-4b533d85e206}, ! Handle
  0.9.3;                                  ! Version Identifier

OS:SizingPeriod:DesignDay,
  {c0233004-df2a-4b98-8c3c-0e81fa0a8c6e}, ! Handle
  Mason City Municipal Arpt Ann Clg .4% Condns DB=>MWB, ! Name
  32.8,                                   ! Maximum Dry-Bulb Temperature {C}
  11.5,                                   ! Daily Dry-Bulb Temperature Range {deltaC}
  23.8,                                   ! Humidity Indicating Conditions at Maximum Dry-Bulb {BasedOnField A3}
  97028,                                  ! Barometric Pressure {Pa}
  6.4,                                    ! Wind Speed {m/s}
  200,                                    ! Wind Direction {deg}
  0,                                      ! Sky Clearness
  0,                                      ! Rain Indicator
  0,                                      ! Snow Indicator
  21,                                     ! Day of Month
  7,                                      ! Month
  SummerDesignDay,                        ! Day Type
  0,                                      ! Daylight Saving Time Indicator
  Wetbulb,                                ! Humidity Indicating Type
  ,                                       ! Humidity Indicating Day Schedule Name
  DefaultMultipliers,                     ! Dry-Bulb Temperature Range Modifier Type
  ,                                       ! Dry-Bulb Temperature Range Modifier Schedule Name
  ASHRAETau,                              ! Solar Model Indicator
  ,                                       ! Beam Solar Day Schedule Name
  ,                                       ! Diffuse Solar Day Schedule Name
  0.409,                                  ! ASHRAE Taub {dimensionless}
  2.21;                                   ! ASHRAE Taud {dimensionless}

OS:ComponentData,
  {2967835c-e231-45a3-84fd-b81ad63b45b5}, ! Handle
  Component Data 1,                       ! Name
  {f6392f16-df04-4ef5-802c-08de212e01d7}, ! UUID
  {c63d28be-4b9e-4c00-abdd-ed0739f4e502}, ! Version UUID
  1366307216,                             ! Creation Timestamp
  1366307216,                             ! Version Timestamp
  {c0233004-df2a-4b98-8c3c-0e81fa0a8c6e}; ! Name of Object 1

