
OS:Version,
  {5e6e8c15-a648-4e43-a9e3-f635671c01d3}, ! Handle
  0.9.3;                                  ! Version Identifier

OS:SizingPeriod:DesignDay,
  {f3e19556-3111-4877-a735-3e6145700b35}, ! Handle
  Myrtle Beach Afb Ann Htg Wind 99.6% Condns WS=>MCDB, ! Name
  10.1,                                   ! Maximum Dry-Bulb Temperature {C}
  0,                                      ! Daily Dry-Bulb Temperature Range {deltaC}
  10.1,                                   ! Humidity Indicating Conditions at Maximum Dry-Bulb {BasedOnField A3}
  101229,                                 ! Barometric Pressure {Pa}
  10.4,                                   ! Wind Speed {m/s}
  0,                                      ! Wind Direction {deg}
  0,                                      ! Sky Clearness
  0,                                      ! Rain Indicator
  0,                                      ! Snow Indicator
  21,                                     ! Day of Month
  1,                                      ! Month
  WinterDesignDay,                        ! Day Type
  0,                                      ! Daylight Saving Time Indicator
  Wetbulb,                                ! Humidity Indicating Type
  ,                                       ! Humidity Indicating Day Schedule Name
  DefaultMultipliers,                     ! Dry-Bulb Temperature Range Modifier Type
  ,                                       ! Dry-Bulb Temperature Range Modifier Schedule Name
  ASHRAEClearSky;                         ! Solar Model Indicator

OS:ComponentData,
  {6fbc052b-1295-47b1-aaca-94f420dbca2f}, ! Handle
  Component Data 1,                       ! Name
  {6d781142-35ce-442f-a0a2-8083c425ceff}, ! UUID
  {982a9401-1902-4384-8337-626a882c968c}, ! Version UUID
  1366310372,                             ! Creation Timestamp
  1366310372,                             ! Version Timestamp
  {f3e19556-3111-4877-a735-3e6145700b35}; ! Name of Object 1

