
OS:Version,
  {f1481724-567e-4bb0-b8cf-f6b3ee11d8d8}, ! Handle
  0.9.3;                                  ! Version Identifier

OS:SizingPeriod:DesignDay,
  {fbfa01f2-90db-45f6-8bc3-e888f11d0226}, ! Handle
  Vero Beach Municipal Arpt Ann Clg 2% Condns Enth=>MDB, ! Name
  30.5,                                   ! Maximum Dry-Bulb Temperature {C}
  8.7,                                    ! Daily Dry-Bulb Temperature Range {deltaC}
  80400,                                  ! Humidity Indicating Conditions at Maximum Dry-Bulb {BasedOnField A3}
  101241,                                 ! Barometric Pressure {Pa}
  4.8,                                    ! Wind Speed {m/s}
  120,                                    ! Wind Direction {deg}
  0,                                      ! Sky Clearness
  0,                                      ! Rain Indicator
  0,                                      ! Snow Indicator
  21,                                     ! Day of Month
  7,                                      ! Month
  SummerDesignDay,                        ! Day Type
  0,                                      ! Daylight Saving Time Indicator
  Enthalpy,                               ! Humidity Indicating Type
  ,                                       ! Humidity Indicating Day Schedule Name
  DefaultMultipliers,                     ! Dry-Bulb Temperature Range Modifier Type
  ,                                       ! Dry-Bulb Temperature Range Modifier Schedule Name
  ASHRAETau,                              ! Solar Model Indicator
  ,                                       ! Beam Solar Day Schedule Name
  ,                                       ! Diffuse Solar Day Schedule Name
  0.492,                                  ! ASHRAE Taub {dimensionless}
  2.012;                                  ! ASHRAE Taud {dimensionless}

OS:ComponentData,
  {ce0bdd52-58e5-4f6f-bf90-631ec6df942e}, ! Handle
  Component Data 1,                       ! Name
  {c59d23a5-0d79-4ade-90bd-2a78455f6d38}, ! UUID
  {a1064b4f-ade5-4d68-a7c7-04c75cfe777d}, ! Version UUID
  1366306946,                             ! Creation Timestamp
  1366306946,                             ! Version Timestamp
  {fbfa01f2-90db-45f6-8bc3-e888f11d0226}; ! Name of Object 1

