
OS:Version,
  {f740d273-9188-4cac-a471-f84c4da38f78}, ! Handle
  0.9.3;                                  ! Version Identifier

OS:SizingPeriod:DesignDay,
  {a92ed46b-c4fe-437e-85d9-ad640718ad80}, ! Handle
  Syracuse Hancock IntL Arpt Ann Htg Wind 99.6% Condns WS=>MCDB, ! Name
  -5.9,                                   ! Maximum Dry-Bulb Temperature {C}
  0,                                      ! Daily Dry-Bulb Temperature Range {deltaC}
  -5.9,                                   ! Humidity Indicating Conditions at Maximum Dry-Bulb {BasedOnField A3}
  99832,                                  ! Barometric Pressure {Pa}
  12.8,                                   ! Wind Speed {m/s}
  90,                                     ! Wind Direction {deg}
  0,                                      ! Sky Clearness
  0,                                      ! Rain Indicator
  0,                                      ! Snow Indicator
  21,                                     ! Day of Month
  1,                                      ! Month
  WinterDesignDay,                        ! Day Type
  0,                                      ! Daylight Saving Time Indicator
  Wetbulb,                                ! Humidity Indicating Type
  ,                                       ! Humidity Indicating Day Schedule Name
  DefaultMultipliers,                     ! Dry-Bulb Temperature Range Modifier Type
  ,                                       ! Dry-Bulb Temperature Range Modifier Schedule Name
  ASHRAEClearSky;                         ! Solar Model Indicator

OS:ComponentData,
  {d8289797-2763-47e5-aba1-96a59f32fc30}, ! Handle
  Component Data 1,                       ! Name
  {d43a9f57-2be9-4530-b94e-6e1b14687ca0}, ! UUID
  {abe11bb7-b398-4946-91f6-ba3fdcad5954}, ! Version UUID
  1366309734,                             ! Creation Timestamp
  1366309734,                             ! Version Timestamp
  {a92ed46b-c4fe-437e-85d9-ad640718ad80}; ! Name of Object 1

