
OS:Version,
  {38a56e36-9a1e-45e9-893e-94aa70b7820c}, ! Handle
  0.9.3;                                  ! Version Identifier

OS:SizingPeriod:DesignDay,
  {e666cc01-b267-49ee-ab7b-c4eaba30497a}, ! Handle
  Oklahoma City/Will Rog Ann Clg .4% Condns DB=>MWB, ! Name
  37.5,                                   ! Maximum Dry-Bulb Temperature {C}
  11.7,                                   ! Daily Dry-Bulb Temperature Range {deltaC}
  23.4,                                   ! Humidity Indicating Conditions at Maximum Dry-Bulb {BasedOnField A3}
  96646,                                  ! Barometric Pressure {Pa}
  5.5,                                    ! Wind Speed {m/s}
  170,                                    ! Wind Direction {deg}
  0,                                      ! Sky Clearness
  0,                                      ! Rain Indicator
  0,                                      ! Snow Indicator
  21,                                     ! Day of Month
  7,                                      ! Month
  SummerDesignDay,                        ! Day Type
  0,                                      ! Daylight Saving Time Indicator
  Wetbulb,                                ! Humidity Indicating Type
  ,                                       ! Humidity Indicating Day Schedule Name
  DefaultMultipliers,                     ! Dry-Bulb Temperature Range Modifier Type
  ,                                       ! Dry-Bulb Temperature Range Modifier Schedule Name
  ASHRAETau,                              ! Solar Model Indicator
  ,                                       ! Beam Solar Day Schedule Name
  ,                                       ! Diffuse Solar Day Schedule Name
  0.426,                                  ! ASHRAE Taub {dimensionless}
  2.214;                                  ! ASHRAE Taud {dimensionless}

OS:ComponentData,
  {6cd3f998-fdf0-451b-903d-7ce94cbda603}, ! Handle
  Component Data 1,                       ! Name
  {d2705ee7-af47-47c9-85e3-badcbf947373}, ! UUID
  {e2b02c9b-eb6c-4fc1-9d51-dea54a471889}, ! Version UUID
  1366309922,                             ! Creation Timestamp
  1366309922,                             ! Version Timestamp
  {e666cc01-b267-49ee-ab7b-c4eaba30497a}; ! Name of Object 1

