
OS:Version,
  {90ad64bc-fca2-4f83-8511-ffeca02e38fd}, ! Handle
  0.9.3;                                  ! Version Identifier

OS:SizingPeriod:DesignDay,
  {2a4400c8-8b00-4a77-b7cd-1325bb684294}, ! Handle
  Wilmington International Arpt Ann Clg 1% Condns WB=>MDB, ! Name
  30.8,                                   ! Maximum Dry-Bulb Temperature {C}
  8.7,                                    ! Daily Dry-Bulb Temperature Range {deltaC}
  26.3,                                   ! Humidity Indicating Conditions at Maximum Dry-Bulb {BasedOnField A3}
  101217,                                 ! Barometric Pressure {Pa}
  4.4,                                    ! Wind Speed {m/s}
  240,                                    ! Wind Direction {deg}
  0,                                      ! Sky Clearness
  0,                                      ! Rain Indicator
  0,                                      ! Snow Indicator
  21,                                     ! Day of Month
  7,                                      ! Month
  SummerDesignDay,                        ! Day Type
  0,                                      ! Daylight Saving Time Indicator
  Wetbulb,                                ! Humidity Indicating Type
  ,                                       ! Humidity Indicating Day Schedule Name
  DefaultMultipliers,                     ! Dry-Bulb Temperature Range Modifier Type
  ,                                       ! Dry-Bulb Temperature Range Modifier Schedule Name
  ASHRAETau,                              ! Solar Model Indicator
  ,                                       ! Beam Solar Day Schedule Name
  ,                                       ! Diffuse Solar Day Schedule Name
  0.584,                                  ! ASHRAE Taub {dimensionless}
  1.738;                                  ! ASHRAE Taud {dimensionless}

OS:ComponentData,
  {7321bbb3-84ec-4936-8df2-bdb13de14458}, ! Handle
  Component Data 1,                       ! Name
  {f7baf0c8-965c-4f4a-82cd-84bd091db332}, ! UUID
  {b15f447d-02cf-4193-b325-ec4e4da6e62c}, ! Version UUID
  1366308990,                             ! Creation Timestamp
  1366308990,                             ! Version Timestamp
  {2a4400c8-8b00-4a77-b7cd-1325bb684294}; ! Name of Object 1

