
OS:Version,
  {0c860005-2e44-467e-b352-7621c73b18a1}, ! Handle
  0.9.3;                                  ! Version Identifier

OS:SizingPeriod:DesignDay,
  {8eff62b9-0b9b-4e45-9246-9ecdaee9c358}, ! Handle
  Omaha/Eppley Airfield Ann Clg 2% Condns Enth=>MDB, ! Name
  29.9,                                   ! Maximum Dry-Bulb Temperature {C}
  11,                                     ! Daily Dry-Bulb Temperature Range {deltaC}
  74900,                                  ! Humidity Indicating Conditions at Maximum Dry-Bulb {BasedOnField A3}
  97784,                                  ! Barometric Pressure {Pa}
  6.1,                                    ! Wind Speed {m/s}
  180,                                    ! Wind Direction {deg}
  0,                                      ! Sky Clearness
  0,                                      ! Rain Indicator
  0,                                      ! Snow Indicator
  21,                                     ! Day of Month
  7,                                      ! Month
  SummerDesignDay,                        ! Day Type
  0,                                      ! Daylight Saving Time Indicator
  Enthalpy,                               ! Humidity Indicating Type
  ,                                       ! Humidity Indicating Day Schedule Name
  DefaultMultipliers,                     ! Dry-Bulb Temperature Range Modifier Type
  ,                                       ! Dry-Bulb Temperature Range Modifier Schedule Name
  ASHRAETau,                              ! Solar Model Indicator
  ,                                       ! Beam Solar Day Schedule Name
  ,                                       ! Diffuse Solar Day Schedule Name
  0.421,                                  ! ASHRAE Taub {dimensionless}
  2.196;                                  ! ASHRAE Taud {dimensionless}

OS:ComponentData,
  {df45909e-b161-4e96-8bc4-fce8b9317c16}, ! Handle
  Component Data 1,                       ! Name
  {7020ab3a-de7c-4f28-974a-0cda75d913c0}, ! UUID
  {cc0de39b-2090-41a7-a9b0-da0265928799}, ! Version UUID
  1366309170,                             ! Creation Timestamp
  1366309170,                             ! Version Timestamp
  {8eff62b9-0b9b-4e45-9246-9ecdaee9c358}; ! Name of Object 1

