
OS:Version,
  {7f4a1a18-cf7c-4272-bf93-3aff51e5bb4c}, ! Handle
  0.9.3;                                  ! Version Identifier

OS:SizingPeriod:DesignDay,
  {c0eeb6ed-f919-49d3-9430-065f9c94078a}, ! Handle
  Winslow Ann Htg 99% Condns DB,          ! Name
  -9.3,                                   ! Maximum Dry-Bulb Temperature {C}
  0,                                      ! Daily Dry-Bulb Temperature Range {deltaC}
  -9.3,                                   ! Humidity Indicating Conditions at Maximum Dry-Bulb {BasedOnField A3}
  84660,                                  ! Barometric Pressure {Pa}
  1.6,                                    ! Wind Speed {m/s}
  130,                                    ! Wind Direction {deg}
  0,                                      ! Sky Clearness
  0,                                      ! Rain Indicator
  0,                                      ! Snow Indicator
  21,                                     ! Day of Month
  12,                                     ! Month
  WinterDesignDay,                        ! Day Type
  0,                                      ! Daylight Saving Time Indicator
  Wetbulb,                                ! Humidity Indicating Type
  ,                                       ! Humidity Indicating Day Schedule Name
  DefaultMultipliers,                     ! Dry-Bulb Temperature Range Modifier Type
  ,                                       ! Dry-Bulb Temperature Range Modifier Schedule Name
  ASHRAEClearSky;                         ! Solar Model Indicator

OS:ComponentData,
  {c0641b77-5522-49c9-9b5f-7f816f65c8a8}, ! Handle
  Component Data 1,                       ! Name
  {6fd2b7f2-07e2-4779-8e66-2ea1eca11f7d}, ! UUID
  {ccdb36dc-4223-4181-9ee7-887f28f3052a}, ! Version UUID
  1366306327,                             ! Creation Timestamp
  1366306327,                             ! Version Timestamp
  {c0eeb6ed-f919-49d3-9430-065f9c94078a}; ! Name of Object 1

