
OS:Version,
  {184d823f-fc00-423c-a25c-06b7a7e564ad}, ! Handle
  0.9.3;                                  ! Version Identifier

OS:SizingPeriod:DesignDay,
  {8485d5c8-f5cf-422d-857f-1001ef17e7c3}, ! Handle
  Sand Point Ann Clg 2% Condns DP=>MDB,   ! Name
  13,                                     ! Maximum Dry-Bulb Temperature {C}
  3.8,                                    ! Daily Dry-Bulb Temperature Range {deltaC}
  10.9,                                   ! Humidity Indicating Conditions at Maximum Dry-Bulb {BasedOnField A3}
  101241,                                 ! Barometric Pressure {Pa}
  4.2,                                    ! Wind Speed {m/s}
  350,                                    ! Wind Direction {deg}
  0,                                      ! Sky Clearness
  0,                                      ! Rain Indicator
  0,                                      ! Snow Indicator
  21,                                     ! Day of Month
  8,                                      ! Month
  SummerDesignDay,                        ! Day Type
  0,                                      ! Daylight Saving Time Indicator
  Dewpoint,                               ! Humidity Indicating Type
  ,                                       ! Humidity Indicating Day Schedule Name
  DefaultMultipliers,                     ! Dry-Bulb Temperature Range Modifier Type
  ,                                       ! Dry-Bulb Temperature Range Modifier Schedule Name
  ASHRAETau,                              ! Solar Model Indicator
  ,                                       ! Beam Solar Day Schedule Name
  ,                                       ! Diffuse Solar Day Schedule Name
  0.381,                                  ! ASHRAE Taub {dimensionless}
  2.28;                                   ! ASHRAE Taud {dimensionless}

OS:ComponentData,
  {454681cb-571c-487f-a607-e7253293b7a7}, ! Handle
  Component Data 1,                       ! Name
  {73a210be-6e9a-417b-9963-f199fcd116a9}, ! UUID
  {316b83e8-e6c4-4bf4-9562-3c5325b94c35}, ! Version UUID
  1366305528,                             ! Creation Timestamp
  1366305528,                             ! Version Timestamp
  {8485d5c8-f5cf-422d-857f-1001ef17e7c3}; ! Name of Object 1

