
OS:Version,
  {dfd175f5-29c3-49c6-b67e-7b5df4049ce3}, ! Handle
  0.9.3;                                  ! Version Identifier

OS:SizingPeriod:DesignDay,
  {4a0f9447-24b7-4bcb-8355-a625153cda59}, ! Handle
  Montrose Co  Arpt Ann Clg .4% Condns WB=>MDB, ! Name
  28.5,                                   ! Maximum Dry-Bulb Temperature {C}
  16.9,                                   ! Daily Dry-Bulb Temperature Range {deltaC}
  17.9,                                   ! Humidity Indicating Conditions at Maximum Dry-Bulb {BasedOnField A3}
  81943,                                  ! Barometric Pressure {Pa}
  4.1,                                    ! Wind Speed {m/s}
  340,                                    ! Wind Direction {deg}
  0,                                      ! Sky Clearness
  0,                                      ! Rain Indicator
  0,                                      ! Snow Indicator
  21,                                     ! Day of Month
  7,                                      ! Month
  SummerDesignDay,                        ! Day Type
  0,                                      ! Daylight Saving Time Indicator
  Wetbulb,                                ! Humidity Indicating Type
  ,                                       ! Humidity Indicating Day Schedule Name
  DefaultMultipliers,                     ! Dry-Bulb Temperature Range Modifier Type
  ,                                       ! Dry-Bulb Temperature Range Modifier Schedule Name
  ASHRAETau,                              ! Solar Model Indicator
  ,                                       ! Beam Solar Day Schedule Name
  ,                                       ! Diffuse Solar Day Schedule Name
  0.4,                                    ! ASHRAE Taub {dimensionless}
  2.143;                                  ! ASHRAE Taud {dimensionless}

OS:ComponentData,
  {eabae1f7-f664-49a1-a3c1-15f9ff9cb958}, ! Handle
  Component Data 1,                       ! Name
  {94a28847-85de-4a94-8cd6-bc77973d0a82}, ! UUID
  {2f3c1127-b0d0-4be1-a4b1-4ae2b81d4780}, ! Version UUID
  1366306724,                             ! Creation Timestamp
  1366306724,                             ! Version Timestamp
  {4a0f9447-24b7-4bcb-8355-a625153cda59}; ! Name of Object 1

