
OS:Version,
  {a9f97409-9ad6-4e62-bfdd-33180fe4f4c8}, ! Handle
  0.9.3;                                  ! Version Identifier

OS:SizingPeriod:DesignDay,
  {83ae035f-a84e-43d5-9dd4-4282b69d08b2}, ! Handle
  San Diego Lindbergh Field Ann Hum_n 99% Condns DP=>MCDB, ! Name
  15.6,                                   ! Maximum Dry-Bulb Temperature {C}
  0,                                      ! Daily Dry-Bulb Temperature Range {deltaC}
  -4.8,                                   ! Humidity Indicating Conditions at Maximum Dry-Bulb {BasedOnField A3}
  101277,                                 ! Barometric Pressure {Pa}
  1.3,                                    ! Wind Speed {m/s}
  340,                                    ! Wind Direction {deg}
  0,                                      ! Sky Clearness
  0,                                      ! Rain Indicator
  0,                                      ! Snow Indicator
  21,                                     ! Day of Month
  12,                                     ! Month
  WinterDesignDay,                        ! Day Type
  0,                                      ! Daylight Saving Time Indicator
  Dewpoint,                               ! Humidity Indicating Type
  ,                                       ! Humidity Indicating Day Schedule Name
  DefaultMultipliers,                     ! Dry-Bulb Temperature Range Modifier Type
  ,                                       ! Dry-Bulb Temperature Range Modifier Schedule Name
  ASHRAEClearSky;                         ! Solar Model Indicator

OS:ComponentData,
  {fa62e975-9250-4695-85a0-9cf349b2ff8f}, ! Handle
  Component Data 1,                       ! Name
  {ec3aa7b0-f3bc-40a6-acf8-1b7e7bbbbc58}, ! UUID
  {01598ac7-ee9d-4467-8356-48cb5b43d1a2}, ! Version UUID
  1366306575,                             ! Creation Timestamp
  1366306575,                             ! Version Timestamp
  {83ae035f-a84e-43d5-9dd4-4282b69d08b2}; ! Name of Object 1

