
OS:Version,
  {939dda36-8899-44b9-9565-8f36498ba8f9}, ! Handle
  0.9.3;                                  ! Version Identifier

OS:SizingPeriod:DesignDay,
  {48c0d81d-7530-4e66-9e5a-186c10d6a011}, ! Handle
  Philadelphia/Willow Gr Ann Clg 2% Condns WB=>MDB, ! Name
  28.8,                                   ! Maximum Dry-Bulb Temperature {C}
  9.4,                                    ! Daily Dry-Bulb Temperature Range {deltaC}
  24.3,                                   ! Humidity Indicating Conditions at Maximum Dry-Bulb {BasedOnField A3}
  100011,                                 ! Barometric Pressure {Pa}
  5,                                      ! Wind Speed {m/s}
  240,                                    ! Wind Direction {deg}
  0,                                      ! Sky Clearness
  0,                                      ! Rain Indicator
  0,                                      ! Snow Indicator
  21,                                     ! Day of Month
  7,                                      ! Month
  SummerDesignDay,                        ! Day Type
  0,                                      ! Daylight Saving Time Indicator
  Wetbulb,                                ! Humidity Indicating Type
  ,                                       ! Humidity Indicating Day Schedule Name
  DefaultMultipliers,                     ! Dry-Bulb Temperature Range Modifier Type
  ,                                       ! Dry-Bulb Temperature Range Modifier Schedule Name
  ASHRAETau,                              ! Solar Model Indicator
  ,                                       ! Beam Solar Day Schedule Name
  ,                                       ! Diffuse Solar Day Schedule Name
  0.55,                                   ! ASHRAE Taub {dimensionless}
  1.776;                                  ! ASHRAE Taud {dimensionless}

OS:ComponentData,
  {d207ca05-dac6-4dfb-81d2-07b67125074e}, ! Handle
  Component Data 1,                       ! Name
  {d4d25d9c-6858-45ee-85e3-7c2cdacf43e1}, ! UUID
  {5a71cb44-57a7-459f-b49c-5ef4d4357a4e}, ! Version UUID
  1366310219,                             ! Creation Timestamp
  1366310219,                             ! Version Timestamp
  {48c0d81d-7530-4e66-9e5a-186c10d6a011}; ! Name of Object 1

