
OS:Version,
  {a34ab5f6-3dbf-42e1-81ce-fb5348d7200a}, ! Handle
  0.9.3;                                  ! Version Identifier

OS:SizingPeriod:DesignDay,
  {fd4b5a4b-00ba-4cb7-beab-da9009cfcafe}, ! Handle
  Raleigh Durham International Ann Hum_n 99.6% Condns DP=>MCDB, ! Name
  -3.3,                                   ! Maximum Dry-Bulb Temperature {C}
  0,                                      ! Daily Dry-Bulb Temperature Range {deltaC}
  -17.3,                                  ! Humidity Indicating Conditions at Maximum Dry-Bulb {BasedOnField A3}
  99809,                                  ! Barometric Pressure {Pa}
  2.8,                                    ! Wind Speed {m/s}
  30,                                     ! Wind Direction {deg}
  0,                                      ! Sky Clearness
  0,                                      ! Rain Indicator
  0,                                      ! Snow Indicator
  21,                                     ! Day of Month
  1,                                      ! Month
  WinterDesignDay,                        ! Day Type
  0,                                      ! Daylight Saving Time Indicator
  Dewpoint,                               ! Humidity Indicating Type
  ,                                       ! Humidity Indicating Day Schedule Name
  DefaultMultipliers,                     ! Dry-Bulb Temperature Range Modifier Type
  ,                                       ! Dry-Bulb Temperature Range Modifier Schedule Name
  ASHRAEClearSky;                         ! Solar Model Indicator

