
OS:Version,
  {2602c921-b885-4c7d-85c4-e9a9189cbff6}, ! Handle
  0.9.3;                                  ! Version Identifier

OS:SizingPeriod:DesignDay,
  {c27c73e4-3743-4020-abe0-aa67c840edca}, ! Handle
  Nasa Shuttle Fclty Ann Clg 2% Condns DP=>MDB, ! Name
  28.2,                                   ! Maximum Dry-Bulb Temperature {C}
  8.7,                                    ! Daily Dry-Bulb Temperature Range {deltaC}
  25,                                     ! Humidity Indicating Conditions at Maximum Dry-Bulb {BasedOnField A3}
  101289,                                 ! Barometric Pressure {Pa}
  3.5,                                    ! Wind Speed {m/s}
  240,                                    ! Wind Direction {deg}
  0,                                      ! Sky Clearness
  0,                                      ! Rain Indicator
  0,                                      ! Snow Indicator
  21,                                     ! Day of Month
  7,                                      ! Month
  SummerDesignDay,                        ! Day Type
  0,                                      ! Daylight Saving Time Indicator
  Dewpoint,                               ! Humidity Indicating Type
  ,                                       ! Humidity Indicating Day Schedule Name
  DefaultMultipliers,                     ! Dry-Bulb Temperature Range Modifier Type
  ,                                       ! Dry-Bulb Temperature Range Modifier Schedule Name
  ASHRAETau,                              ! Solar Model Indicator
  ,                                       ! Beam Solar Day Schedule Name
  ,                                       ! Diffuse Solar Day Schedule Name
  0.504,                                  ! ASHRAE Taub {dimensionless}
  1.981;                                  ! ASHRAE Taud {dimensionless}

OS:ComponentData,
  {1709376d-2468-4e2b-bfd8-62ff09b8c863}, ! Handle
  Component Data 1,                       ! Name
  {556a05e6-2005-4b14-9adf-3c84bf51de55}, ! UUID
  {6abc8c90-a7c3-4e15-948d-9cb742f302dc}, ! Version UUID
  1366306878,                             ! Creation Timestamp
  1366306878,                             ! Version Timestamp
  {c27c73e4-3743-4020-abe0-aa67c840edca}; ! Name of Object 1

