
OS:Version,
  {8355285b-01dd-4ffa-bd2b-11c28b7f3922}, ! Handle
  0.9.3;                                  ! Version Identifier

OS:SizingPeriod:DesignDay,
  {d69071a6-c244-41ed-b9fe-814111b68a2c}, ! Handle
  RALEIGH Ann Clg 2% Condns Enth=>MDB,    ! Name
  30.1,                                   ! Maximum Dry-Bulb Temperature {C}
  10.5,                                   ! Daily Dry-Bulb Temperature Range {deltaC}
  74900,                                  ! Humidity Indicating Conditions at Maximum Dry-Bulb {BasedOnField A3}
  99726,                                  ! Barometric Pressure {Pa}
  4,                                      ! Wind Speed {m/s}
  240,                                    ! Wind Direction {deg}
  0,                                      ! Sky Clearness
  0,                                      ! Rain Indicator
  0,                                      ! Snow Indicator
  21,                                     ! Day of Month
  7,                                      ! Month
  SummerDesignDay,                        ! Day Type
  0,                                      ! Daylight Saving Time Indicator
  Enthalpy,                               ! Humidity Indicating Type
  ,                                       ! Humidity Indicating Day Schedule Name
  DefaultMultipliers,                     ! Dry-Bulb Temperature Range Modifier Type
  ,                                       ! Dry-Bulb Temperature Range Modifier Schedule Name
  ASHRAETau,                              ! Solar Model Indicator
  ,                                       ! Beam Solar Day Schedule Name
  ,                                       ! Diffuse Solar Day Schedule Name
  0.577,                                  ! ASHRAE Taub {dimensionless}
  1.722;                                  ! ASHRAE Taud {dimensionless}

OS:ComponentData,
  {a584d203-0302-497c-96ba-afe08283b954}, ! Handle
  Component Data 1,                       ! Name
  {35d9bfb3-e0a7-408a-972f-3fe497a5680c}, ! UUID
  {3d139182-897c-4209-9888-70764c8e516a}, ! Version UUID
  1366308966,                             ! Creation Timestamp
  1366308966,                             ! Version Timestamp
  {d69071a6-c244-41ed-b9fe-814111b68a2c}; ! Name of Object 1

