
OS:Version,
  {6a5608db-4535-4079-9ad4-3043c1c88a5a}, ! Handle
  0.9.3;                                  ! Version Identifier

OS:SizingPeriod:DesignDay,
  {76b5d7b5-12ee-4beb-8dd4-ef0969239c0b}, ! Handle
  Marion   Wytheville Ann Clg .4% Condns WB=>MDB, ! Name
  29.5,                                   ! Maximum Dry-Bulb Temperature {C}
  10.8,                                   ! Daily Dry-Bulb Temperature Range {deltaC}
  22.8,                                   ! Humidity Indicating Conditions at Maximum Dry-Bulb {BasedOnField A3}
  92299,                                  ! Barometric Pressure {Pa}
  2.5,                                    ! Wind Speed {m/s}
  290,                                    ! Wind Direction {deg}
  0,                                      ! Sky Clearness
  0,                                      ! Rain Indicator
  0,                                      ! Snow Indicator
  21,                                     ! Day of Month
  7,                                      ! Month
  SummerDesignDay,                        ! Day Type
  0,                                      ! Daylight Saving Time Indicator
  Wetbulb,                                ! Humidity Indicating Type
  ,                                       ! Humidity Indicating Day Schedule Name
  DefaultMultipliers,                     ! Dry-Bulb Temperature Range Modifier Type
  ,                                       ! Dry-Bulb Temperature Range Modifier Schedule Name
  ASHRAETau,                              ! Solar Model Indicator
  ,                                       ! Beam Solar Day Schedule Name
  ,                                       ! Diffuse Solar Day Schedule Name
  0.494,                                  ! ASHRAE Taub {dimensionless}
  1.892;                                  ! ASHRAE Taud {dimensionless}

OS:ComponentData,
  {269e1a53-c113-4908-a910-96f233532d0f}, ! Handle
  Component Data 1,                       ! Name
  {e088beea-12f6-49a2-a02d-c65c08abcdf9}, ! UUID
  {b1ef62bd-5263-477c-b6c9-0baa7d275346}, ! Version UUID
  1366311101,                             ! Creation Timestamp
  1366311101,                             ! Version Timestamp
  {76b5d7b5-12ee-4beb-8dd4-ef0969239c0b}; ! Name of Object 1

