
OS:Version,
  {b4f1c620-d395-43e4-a301-0119f7e0c363}, ! Handle
  0.9.3;                                  ! Version Identifier

OS:SizingPeriod:DesignDay,
  {70767eda-afa9-4954-996a-2af3a1c5019e}, ! Handle
  Mobile Ann Clg 2% Condns DB=>MWB,       ! Name
  32.4,                                   ! Maximum Dry-Bulb Temperature {C}
  9.4,                                    ! Daily Dry-Bulb Temperature Range {deltaC}
  24.5,                                   ! Humidity Indicating Conditions at Maximum Dry-Bulb {BasedOnField A3}
  100523,                                 ! Barometric Pressure {Pa}
  3.5,                                    ! Wind Speed {m/s}
  350,                                    ! Wind Direction {deg}
  0,                                      ! Sky Clearness
  0,                                      ! Rain Indicator
  0,                                      ! Snow Indicator
  21,                                     ! Day of Month
  7,                                      ! Month
  SummerDesignDay,                        ! Day Type
  0,                                      ! Daylight Saving Time Indicator
  Wetbulb,                                ! Humidity Indicating Type
  ,                                       ! Humidity Indicating Day Schedule Name
  DefaultMultipliers,                     ! Dry-Bulb Temperature Range Modifier Type
  ,                                       ! Dry-Bulb Temperature Range Modifier Schedule Name
  ASHRAETau,                              ! Solar Model Indicator
  ,                                       ! Beam Solar Day Schedule Name
  ,                                       ! Diffuse Solar Day Schedule Name
  0.538,                                  ! ASHRAE Taub {dimensionless}
  1.867;                                  ! ASHRAE Taud {dimensionless}

OS:ComponentData,
  {3f2ecb5d-5018-4fdf-83a3-21a678ec14b3}, ! Handle
  Component Data 1,                       ! Name
  {e11ce161-be61-4d9d-b324-f4f54e15d3dd}, ! UUID
  {ebaf8cb4-1f27-48b1-ae2e-ec40ccc02784}, ! Version UUID
  1366305736,                             ! Creation Timestamp
  1366305736,                             ! Version Timestamp
  {70767eda-afa9-4954-996a-2af3a1c5019e}; ! Name of Object 1

