
OS:Version,
  {304f652d-e323-4f76-985b-66fe5921e922}, ! Handle
  0.9.3;                                  ! Version Identifier

OS:SizingPeriod:DesignDay,
  {4836ca97-cd61-450f-bcfe-aaab66fa01c0}, ! Handle
  TULSA Ann Clg 2% Condns WB=>MDB,        ! Name
  32.2,                                   ! Maximum Dry-Bulb Temperature {C}
  10.5,                                   ! Daily Dry-Bulb Temperature Range {deltaC}
  25.1,                                   ! Humidity Indicating Conditions at Maximum Dry-Bulb {BasedOnField A3}
  98875,                                  ! Barometric Pressure {Pa}
  4.9,                                    ! Wind Speed {m/s}
  190,                                    ! Wind Direction {deg}
  0,                                      ! Sky Clearness
  0,                                      ! Rain Indicator
  0,                                      ! Snow Indicator
  21,                                     ! Day of Month
  7,                                      ! Month
  SummerDesignDay,                        ! Day Type
  0,                                      ! Daylight Saving Time Indicator
  Wetbulb,                                ! Humidity Indicating Type
  ,                                       ! Humidity Indicating Day Schedule Name
  DefaultMultipliers,                     ! Dry-Bulb Temperature Range Modifier Type
  ,                                       ! Dry-Bulb Temperature Range Modifier Schedule Name
  ASHRAETau,                              ! Solar Model Indicator
  ,                                       ! Beam Solar Day Schedule Name
  ,                                       ! Diffuse Solar Day Schedule Name
  0.453,                                  ! ASHRAE Taub {dimensionless}
  2.105;                                  ! ASHRAE Taud {dimensionless}

OS:ComponentData,
  {026c0eaa-1e54-49a3-9ee2-2ea11db2cd17}, ! Handle
  Component Data 1,                       ! Name
  {56def5cf-9619-4342-b9cb-bb15d220f42e}, ! UUID
  {d58ad850-78ac-4373-90b8-c447b0ca2058}, ! Version UUID
  1366309950,                             ! Creation Timestamp
  1366309950,                             ! Version Timestamp
  {4836ca97-cd61-450f-bcfe-aaab66fa01c0}; ! Name of Object 1

