
OS:Version,
  {c8a2ce09-40c6-4f87-aaaa-9a2f87d8732e}, ! Handle
  0.9.3;                                  ! Version Identifier

OS:SizingPeriod:DesignDay,
  {80f621f9-dec3-49fd-8665-fb35d82901c5}, ! Handle
  San Jose Intl Ap Ann Hum_n 99.6% Condns DP=>MCDB, ! Name
  10.4,                                   ! Maximum Dry-Bulb Temperature {C}
  0,                                      ! Daily Dry-Bulb Temperature Range {deltaC}
  -7.1,                                   ! Humidity Indicating Conditions at Maximum Dry-Bulb {BasedOnField A3}
  101133,                                 ! Barometric Pressure {Pa}
  0.8,                                    ! Wind Speed {m/s}
  150,                                    ! Wind Direction {deg}
  0,                                      ! Sky Clearness
  0,                                      ! Rain Indicator
  0,                                      ! Snow Indicator
  21,                                     ! Day of Month
  12,                                     ! Month
  WinterDesignDay,                        ! Day Type
  0,                                      ! Daylight Saving Time Indicator
  Dewpoint,                               ! Humidity Indicating Type
  ,                                       ! Humidity Indicating Day Schedule Name
  DefaultMultipliers,                     ! Dry-Bulb Temperature Range Modifier Type
  ,                                       ! Dry-Bulb Temperature Range Modifier Schedule Name
  ASHRAEClearSky;                         ! Solar Model Indicator

OS:ComponentData,
  {8a0ae8f5-9e08-44c0-b970-34693777571d}, ! Handle
  Component Data 1,                       ! Name
  {ce3b29b2-ee63-41ca-b0f7-fbbaeb427ffd}, ! UUID
  {dd075e6a-77a3-430b-8095-ee94418972a6}, ! Version UUID
  1366306598,                             ! Creation Timestamp
  1366306598,                             ! Version Timestamp
  {80f621f9-dec3-49fd-8665-fb35d82901c5}; ! Name of Object 1

