
OS:Version,
  {8cfb16ce-fdc2-4067-840c-13e0930dc660}, ! Handle
  0.9.3;                                  ! Version Identifier

OS:SizingPeriod:DesignDay,
  {bd1d5ae9-198f-49c2-89d0-85346a6ca5b9}, ! Handle
  Pocatello Regional Ap Ann Htg Wind 99.6% Condns WS=>MCDB, ! Name
  3.3,                                    ! Maximum Dry-Bulb Temperature {C}
  0,                                      ! Daily Dry-Bulb Temperature Range {deltaC}
  3.3,                                    ! Humidity Indicating Conditions at Maximum Dry-Bulb {BasedOnField A3}
  86092,                                  ! Barometric Pressure {Pa}
  14.6,                                   ! Wind Speed {m/s}
  30,                                     ! Wind Direction {deg}
  0,                                      ! Sky Clearness
  0,                                      ! Rain Indicator
  0,                                      ! Snow Indicator
  21,                                     ! Day of Month
  12,                                     ! Month
  WinterDesignDay,                        ! Day Type
  0,                                      ! Daylight Saving Time Indicator
  Wetbulb,                                ! Humidity Indicating Type
  ,                                       ! Humidity Indicating Day Schedule Name
  DefaultMultipliers,                     ! Dry-Bulb Temperature Range Modifier Type
  ,                                       ! Dry-Bulb Temperature Range Modifier Schedule Name
  ASHRAEClearSky;                         ! Solar Model Indicator

OS:ComponentData,
  {de183463-8ef4-41ec-aa56-5a14adaa9353}, ! Handle
  Component Data 1,                       ! Name
  {14e8fa5c-d928-48eb-8e1d-8e579246fbb6}, ! UUID
  {cc9df1be-1b21-4832-a38c-d8152d5a9989}, ! Version UUID
  1366307306,                             ! Creation Timestamp
  1366307306,                             ! Version Timestamp
  {bd1d5ae9-198f-49c2-89d0-85346a6ca5b9}; ! Name of Object 1

