
OS:Version,
  {52a92d59-6847-42b4-a30b-b8d361db612b}, ! Handle
  0.9.3;                                  ! Version Identifier

OS:SizingPeriod:DesignDay,
  {601b25d1-bbc3-4335-bcc3-063348646502}, ! Handle
  Stuttgart  Awos Ann Clg .4% Condns DB=>MWB, ! Name
  36,                                     ! Maximum Dry-Bulb Temperature {C}
  9.6,                                    ! Daily Dry-Bulb Temperature Range {deltaC}
  25.2,                                   ! Humidity Indicating Conditions at Maximum Dry-Bulb {BasedOnField A3}
  100511,                                 ! Barometric Pressure {Pa}
  3.7,                                    ! Wind Speed {m/s}
  220,                                    ! Wind Direction {deg}
  0,                                      ! Sky Clearness
  0,                                      ! Rain Indicator
  0,                                      ! Snow Indicator
  21,                                     ! Day of Month
  7,                                      ! Month
  SummerDesignDay,                        ! Day Type
  0,                                      ! Daylight Saving Time Indicator
  Wetbulb,                                ! Humidity Indicating Type
  ,                                       ! Humidity Indicating Day Schedule Name
  DefaultMultipliers,                     ! Dry-Bulb Temperature Range Modifier Type
  ,                                       ! Dry-Bulb Temperature Range Modifier Schedule Name
  ASHRAETau,                              ! Solar Model Indicator
  ,                                       ! Beam Solar Day Schedule Name
  ,                                       ! Diffuse Solar Day Schedule Name
  0.515,                                  ! ASHRAE Taub {dimensionless}
  1.894;                                  ! ASHRAE Taud {dimensionless}

OS:ComponentData,
  {4a3ec3d0-f644-4a77-adbd-549772cccfdb}, ! Handle
  Component Data 1,                       ! Name
  {4bd84680-45d4-4fc7-ab8c-7eefe0771cde}, ! UUID
  {0eac6d62-b01f-4e36-a879-fea9bf3f408d}, ! Version UUID
  1366306249,                             ! Creation Timestamp
  1366306249,                             ! Version Timestamp
  {601b25d1-bbc3-4335-bcc3-063348646502}; ! Name of Object 1

