
OS:Version,
  {bd838328-512c-44c6-b1c8-d6232936c57e}, ! Handle
  0.9.3;                                  ! Version Identifier

OS:SizingPeriod:DesignDay,
  {bf9c7926-5a76-4d49-a5d8-4339d7f78c3b}, ! Handle
  Salt Lake City Ann Clg .4% Condns WB=>MDB, ! Name
  30.5,                                   ! Maximum Dry-Bulb Temperature {C}
  14.4,                                   ! Daily Dry-Bulb Temperature Range {deltaC}
  19.5,                                   ! Humidity Indicating Conditions at Maximum Dry-Bulb {BasedOnField A3}
  86779,                                  ! Barometric Pressure {Pa}
  5.1,                                    ! Wind Speed {m/s}
  340,                                    ! Wind Direction {deg}
  0,                                      ! Sky Clearness
  0,                                      ! Rain Indicator
  0,                                      ! Snow Indicator
  21,                                     ! Day of Month
  7,                                      ! Month
  SummerDesignDay,                        ! Day Type
  0,                                      ! Daylight Saving Time Indicator
  Wetbulb,                                ! Humidity Indicating Type
  ,                                       ! Humidity Indicating Day Schedule Name
  DefaultMultipliers,                     ! Dry-Bulb Temperature Range Modifier Type
  ,                                       ! Dry-Bulb Temperature Range Modifier Schedule Name
  ASHRAETau,                              ! Solar Model Indicator
  ,                                       ! Beam Solar Day Schedule Name
  ,                                       ! Diffuse Solar Day Schedule Name
  0.44,                                   ! ASHRAE Taub {dimensionless}
  1.968;                                  ! ASHRAE Taud {dimensionless}

OS:ComponentData,
  {9c4539a9-4782-418a-828f-608b43cecfb5}, ! Handle
  Component Data 1,                       ! Name
  {dda39982-150e-4246-9525-1434ab4db34a}, ! UUID
  {d98631ab-1bdc-4c53-a5d3-707cf09912a1}, ! Version UUID
  1366310993,                             ! Creation Timestamp
  1366310993,                             ! Version Timestamp
  {bf9c7926-5a76-4d49-a5d8-4339d7f78c3b}; ! Name of Object 1

