
OS:Version,
  {f2dc0988-7b61-4165-8990-1ae8f60c0bd4}, ! Handle
  0.9.3;                                  ! Version Identifier

OS:SizingPeriod:DesignDay,
  {5106c8c4-c06f-4a7a-aa72-2089116b5acc}, ! Handle
  MASON_CITY Ann Clg .4% Condns DB=>MWB,  ! Name
  32.8,                                   ! Maximum Dry-Bulb Temperature {C}
  11.5,                                   ! Daily Dry-Bulb Temperature Range {deltaC}
  23.8,                                   ! Humidity Indicating Conditions at Maximum Dry-Bulb {BasedOnField A3}
  96924,                                  ! Barometric Pressure {Pa}
  6.4,                                    ! Wind Speed {m/s}
  200,                                    ! Wind Direction {deg}
  0,                                      ! Sky Clearness
  0,                                      ! Rain Indicator
  0,                                      ! Snow Indicator
  21,                                     ! Day of Month
  7,                                      ! Month
  SummerDesignDay,                        ! Day Type
  0,                                      ! Daylight Saving Time Indicator
  Wetbulb,                                ! Humidity Indicating Type
  ,                                       ! Humidity Indicating Day Schedule Name
  DefaultMultipliers,                     ! Dry-Bulb Temperature Range Modifier Type
  ,                                       ! Dry-Bulb Temperature Range Modifier Schedule Name
  ASHRAETau,                              ! Solar Model Indicator
  ,                                       ! Beam Solar Day Schedule Name
  ,                                       ! Diffuse Solar Day Schedule Name
  0.409,                                  ! ASHRAE Taub {dimensionless}
  2.21;                                   ! ASHRAE Taud {dimensionless}

OS:ComponentData,
  {9cfd82dc-95e8-4d69-b2c5-8d1651e23ee6}, ! Handle
  Component Data 1,                       ! Name
  {b00d178d-8586-4356-b802-105c933b4cce}, ! UUID
  {ee373875-8af9-4a94-904e-cdeea12dfb7e}, ! Version UUID
  1366307209,                             ! Creation Timestamp
  1366307209,                             ! Version Timestamp
  {5106c8c4-c06f-4a7a-aa72-2089116b5acc}; ! Name of Object 1

