
OS:Version,
  {5dc378da-1261-41e9-806f-f71a196cc312}, ! Handle
  0.9.3;                                  ! Version Identifier

OS:SizingPeriod:DesignDay,
  {6a0305e5-e26a-4c69-a1c3-6a760f0861cb}, ! Handle
  ST._LOUIS Ann Htg 99% Condns DB,        ! Name
  -12.1,                                  ! Maximum Dry-Bulb Temperature {C}
  0,                                      ! Daily Dry-Bulb Temperature Range {deltaC}
  -12.1,                                  ! Humidity Indicating Conditions at Maximum Dry-Bulb {BasedOnField A3}
  99276,                                  ! Barometric Pressure {Pa}
  4.7,                                    ! Wind Speed {m/s}
  300,                                    ! Wind Direction {deg}
  0,                                      ! Sky Clearness
  0,                                      ! Rain Indicator
  0,                                      ! Snow Indicator
  21,                                     ! Day of Month
  1,                                      ! Month
  WinterDesignDay,                        ! Day Type
  0,                                      ! Daylight Saving Time Indicator
  Wetbulb,                                ! Humidity Indicating Type
  ,                                       ! Humidity Indicating Day Schedule Name
  DefaultMultipliers,                     ! Dry-Bulb Temperature Range Modifier Type
  ,                                       ! Dry-Bulb Temperature Range Modifier Schedule Name
  ASHRAEClearSky;                         ! Solar Model Indicator

OS:ComponentData,
  {f66a71f2-f350-4477-86fa-cddc217432b1}, ! Handle
  Component Data 1,                       ! Name
  {1162bf8b-655b-43e0-8444-db37c34a6800}, ! UUID
  {42349f34-f41a-49f5-b0d2-b241dcd0db1d}, ! Version UUID
  1366308594,                             ! Creation Timestamp
  1366308594,                             ! Version Timestamp
  {6a0305e5-e26a-4c69-a1c3-6a760f0861cb}; ! Name of Object 1

