
OS:Version,
  {65d49b9d-f529-49fa-ae48-6ff7822bb491}, ! Handle
  0.9.3;                                  ! Version Identifier

OS:SizingPeriod:DesignDay,
  {10e14e33-e683-4a9c-b0d9-eae2af4c1d63}, ! Handle
  Redmond Ann Hum_n 99.6% Condns DP=>MCDB, ! Name
  -13.9,                                  ! Maximum Dry-Bulb Temperature {C}
  0,                                      ! Daily Dry-Bulb Temperature Range {deltaC}
  -18.6,                                  ! Humidity Indicating Conditions at Maximum Dry-Bulb {BasedOnField A3}
  90552,                                  ! Barometric Pressure {Pa}
  1.7,                                    ! Wind Speed {m/s}
  320,                                    ! Wind Direction {deg}
  0,                                      ! Sky Clearness
  0,                                      ! Rain Indicator
  0,                                      ! Snow Indicator
  21,                                     ! Day of Month
  12,                                     ! Month
  WinterDesignDay,                        ! Day Type
  0,                                      ! Daylight Saving Time Indicator
  Dewpoint,                               ! Humidity Indicating Type
  ,                                       ! Humidity Indicating Day Schedule Name
  DefaultMultipliers,                     ! Dry-Bulb Temperature Range Modifier Type
  ,                                       ! Dry-Bulb Temperature Range Modifier Schedule Name
  ASHRAEClearSky;                         ! Solar Model Indicator

OS:ComponentData,
  {5aaa9f72-9448-4a96-a12e-733c59f02a07}, ! Handle
  Component Data 1,                       ! Name
  {6c08fa71-6ffb-4674-838b-e23e36b4eb95}, ! UUID
  {ff26adba-a084-4a41-af18-93a1f0dd4008}, ! Version UUID
  1366310092,                             ! Creation Timestamp
  1366310092,                             ! Version Timestamp
  {10e14e33-e683-4a9c-b0d9-eae2af4c1d63}; ! Name of Object 1

