
OS:Version,
  {aa722bb0-d851-48b3-9a72-eef9d417982c}, ! Handle
  0.9.3;                                  ! Version Identifier

OS:SizingPeriod:DesignDay,
  {40549bbd-26ae-47f2-adfa-ab2f9e4d17ac}, ! Handle
  Manassas Muni Awos Ann Clg .4% Condns WB=>MDB, ! Name
  31.2,                                   ! Maximum Dry-Bulb Temperature {C}
  11.3,                                   ! Daily Dry-Bulb Temperature Range {deltaC}
  25,                                     ! Humidity Indicating Conditions at Maximum Dry-Bulb {BasedOnField A3}
  100618,                                 ! Barometric Pressure {Pa}
  3.5,                                    ! Wind Speed {m/s}
  200,                                    ! Wind Direction {deg}
  0,                                      ! Sky Clearness
  0,                                      ! Rain Indicator
  0,                                      ! Snow Indicator
  21,                                     ! Day of Month
  7,                                      ! Month
  SummerDesignDay,                        ! Day Type
  0,                                      ! Daylight Saving Time Indicator
  Wetbulb,                                ! Humidity Indicating Type
  ,                                       ! Humidity Indicating Day Schedule Name
  DefaultMultipliers,                     ! Dry-Bulb Temperature Range Modifier Type
  ,                                       ! Dry-Bulb Temperature Range Modifier Schedule Name
  ASHRAETau,                              ! Solar Model Indicator
  ,                                       ! Beam Solar Day Schedule Name
  ,                                       ! Diffuse Solar Day Schedule Name
  0.555,                                  ! ASHRAE Taub {dimensionless}
  1.764;                                  ! ASHRAE Taud {dimensionless}

OS:ComponentData,
  {3bd2f563-fa7f-472d-b5f7-5fd047c3ffda}, ! Handle
  Component Data 1,                       ! Name
  {5111e976-593a-4283-809d-44c770442912}, ! UUID
  {44ee2b64-bef9-4f9f-82b0-77a59bd1912f}, ! Version UUID
  1366311095,                             ! Creation Timestamp
  1366311095,                             ! Version Timestamp
  {40549bbd-26ae-47f2-adfa-ab2f9e4d17ac}; ! Name of Object 1

