
OS:Version,
  {ed975c32-76db-4c66-8598-a1def4d8c084}, ! Handle
  0.9.3;                                  ! Version Identifier

OS:SizingPeriod:DesignDay,
  {204aba51-8b03-4199-b12c-ee2819e222c0}, ! Handle
  Yakutat State Arpt Ann Htg Wind 99.6% Condns WS=>MCDB, ! Name
  4.2,                                    ! Maximum Dry-Bulb Temperature {C}
  0,                                      ! Daily Dry-Bulb Temperature Range {deltaC}
  4.2,                                    ! Humidity Indicating Conditions at Maximum Dry-Bulb {BasedOnField A3}
  101229,                                 ! Barometric Pressure {Pa}
  12.4,                                   ! Wind Speed {m/s}
  100,                                    ! Wind Direction {deg}
  0,                                      ! Sky Clearness
  0,                                      ! Rain Indicator
  0,                                      ! Snow Indicator
  21,                                     ! Day of Month
  1,                                      ! Month
  WinterDesignDay,                        ! Day Type
  0,                                      ! Daylight Saving Time Indicator
  Wetbulb,                                ! Humidity Indicating Type
  ,                                       ! Humidity Indicating Day Schedule Name
  DefaultMultipliers,                     ! Dry-Bulb Temperature Range Modifier Type
  ,                                       ! Dry-Bulb Temperature Range Modifier Schedule Name
  ASHRAEClearSky;                         ! Solar Model Indicator

OS:ComponentData,
  {5e7832b2-9c30-4cfe-9b67-e24642c1fa40}, ! Handle
  Component Data 1,                       ! Name
  {3241b2f5-907b-4e3e-8e6b-4d35a3443e82}, ! UUID
  {e4975567-a041-430a-914b-95c37169e879}, ! Version UUID
  1366305630,                             ! Creation Timestamp
  1366305630,                             ! Version Timestamp
  {204aba51-8b03-4199-b12c-ee2819e222c0}; ! Name of Object 1

