
OS:Version,
  {d2d7efbb-096f-47df-913c-f4275e2c2bec}, ! Handle
  0.9.3;                                  ! Version Identifier

OS:SizingPeriod:DesignDay,
  {d2d4ffb3-22ad-473c-a0e1-13ddc659914e}, ! Handle
  Seward Ann Clg .4% Condns WB=>MDB,      ! Name
  19.1,                                   ! Maximum Dry-Bulb Temperature {C}
  5.5,                                    ! Daily Dry-Bulb Temperature Range {deltaC}
  15.2,                                   ! Humidity Indicating Conditions at Maximum Dry-Bulb {BasedOnField A3}
  101109,                                 ! Barometric Pressure {Pa}
  5.3,                                    ! Wind Speed {m/s}
  310,                                    ! Wind Direction {deg}
  0,                                      ! Sky Clearness
  0,                                      ! Rain Indicator
  0,                                      ! Snow Indicator
  21,                                     ! Day of Month
  7,                                      ! Month
  SummerDesignDay,                        ! Day Type
  0,                                      ! Daylight Saving Time Indicator
  Wetbulb,                                ! Humidity Indicating Type
  ,                                       ! Humidity Indicating Day Schedule Name
  DefaultMultipliers,                     ! Dry-Bulb Temperature Range Modifier Type
  ,                                       ! Dry-Bulb Temperature Range Modifier Schedule Name
  ASHRAETau,                              ! Solar Model Indicator
  ,                                       ! Beam Solar Day Schedule Name
  ,                                       ! Diffuse Solar Day Schedule Name
  0.399,                                  ! ASHRAE Taub {dimensionless}
  2.108;                                  ! ASHRAE Taud {dimensionless}

OS:ComponentData,
  {34c9f41b-f8c9-4385-98c1-eba41be827b7}, ! Handle
  Component Data 1,                       ! Name
  {805a3f61-ceca-45a5-964e-c66a5b1c9aec}, ! UUID
  {0c610939-900a-4ccc-98a6-c5dad12b0eec}, ! Version UUID
  1366305539,                             ! Creation Timestamp
  1366305539,                             ! Version Timestamp
  {d2d4ffb3-22ad-473c-a0e1-13ddc659914e}; ! Name of Object 1

