
OS:Version,
  {48dec40e-af2d-4892-9350-e039a7e495dd}, ! Handle
  0.9.3;                                  ! Version Identifier

OS:SizingPeriod:DesignDay,
  {10877840-6a6c-41e1-8086-ad92efc42804}, ! Handle
  Northern Aroostook Ann Htg Wind 99% Condns WS=>MCDB, ! Name
  -13,                                    ! Maximum Dry-Bulb Temperature {C}
  0,                                      ! Daily Dry-Bulb Temperature Range {deltaC}
  -13,                                    ! Humidity Indicating Conditions at Maximum Dry-Bulb {BasedOnField A3}
  97668,                                  ! Barometric Pressure {Pa}
  11.9,                                   ! Wind Speed {m/s}
  300,                                    ! Wind Direction {deg}
  0,                                      ! Sky Clearness
  0,                                      ! Rain Indicator
  0,                                      ! Snow Indicator
  21,                                     ! Day of Month
  1,                                      ! Month
  WinterDesignDay,                        ! Day Type
  0,                                      ! Daylight Saving Time Indicator
  Wetbulb,                                ! Humidity Indicating Type
  ,                                       ! Humidity Indicating Day Schedule Name
  DefaultMultipliers,                     ! Dry-Bulb Temperature Range Modifier Type
  ,                                       ! Dry-Bulb Temperature Range Modifier Schedule Name
  ASHRAEClearSky;                         ! Solar Model Indicator

OS:ComponentData,
  {88c88c4d-ec9c-465f-b67c-eafa13ee7db1}, ! Handle
  Component Data 1,                       ! Name
  {1304bd07-dcc9-4690-9527-19688caa20be}, ! UUID
  {1f07203a-2342-40b1-9b9d-ec2d1ecd211d}, ! Version UUID
  1366307897,                             ! Creation Timestamp
  1366307897,                             ! Version Timestamp
  {10877840-6a6c-41e1-8086-ad92efc42804}; ! Name of Object 1

