
OS:Version,
  {8b3de2bc-9a14-4e92-bdd6-71852fd58dbc}, ! Handle
  0.9.3;                                  ! Version Identifier

OS:SizingPeriod:DesignDay,
  {06597abc-3438-4f26-96cb-e934aea8f584}, ! Handle
  Port Arthur Jefferson County Ann Htg Wind 99% Condns WS=>MCDB, ! Name
  13.5,                                   ! Maximum Dry-Bulb Temperature {C}
  0,                                      ! Daily Dry-Bulb Temperature Range {deltaC}
  13.5,                                   ! Humidity Indicating Conditions at Maximum Dry-Bulb {BasedOnField A3}
  101265,                                 ! Barometric Pressure {Pa}
  10,                                     ! Wind Speed {m/s}
  0,                                      ! Wind Direction {deg}
  0,                                      ! Sky Clearness
  0,                                      ! Rain Indicator
  0,                                      ! Snow Indicator
  21,                                     ! Day of Month
  1,                                      ! Month
  WinterDesignDay,                        ! Day Type
  0,                                      ! Daylight Saving Time Indicator
  Wetbulb,                                ! Humidity Indicating Type
  ,                                       ! Humidity Indicating Day Schedule Name
  DefaultMultipliers,                     ! Dry-Bulb Temperature Range Modifier Type
  ,                                       ! Dry-Bulb Temperature Range Modifier Schedule Name
  ASHRAEClearSky;                         ! Solar Model Indicator

OS:ComponentData,
  {f0f4e545-836f-4087-8510-fc3d9870ab7b}, ! Handle
  Component Data 1,                       ! Name
  {14f94d58-f9f1-47c8-a431-76c71cf051eb}, ! UUID
  {19eff957-6815-4a15-914c-2cd6ea4baac5}, ! Version UUID
  1366310852,                             ! Creation Timestamp
  1366310852,                             ! Version Timestamp
  {06597abc-3438-4f26-96cb-e934aea8f584}; ! Name of Object 1

