
OS:Version,
  {56229f56-4d1e-41b2-ac6c-cd9a0634be35}, ! Handle
  0.9.3;                                  ! Version Identifier

OS:SizingPeriod:DesignDay,
  {8d1f82b6-df2d-472f-8816-381e020ece67}, ! Handle
  Sand Point Ann Hum_n 99.6% Condns DP=>MCDB, ! Name
  -9.3,                                   ! Maximum Dry-Bulb Temperature {C}
  0,                                      ! Daily Dry-Bulb Temperature Range {deltaC}
  -16.3,                                  ! Humidity Indicating Conditions at Maximum Dry-Bulb {BasedOnField A3}
  101241,                                 ! Barometric Pressure {Pa}
  10.1,                                   ! Wind Speed {m/s}
  340,                                    ! Wind Direction {deg}
  0,                                      ! Sky Clearness
  0,                                      ! Rain Indicator
  0,                                      ! Snow Indicator
  21,                                     ! Day of Month
  1,                                      ! Month
  WinterDesignDay,                        ! Day Type
  0,                                      ! Daylight Saving Time Indicator
  Dewpoint,                               ! Humidity Indicating Type
  ,                                       ! Humidity Indicating Day Schedule Name
  DefaultMultipliers,                     ! Dry-Bulb Temperature Range Modifier Type
  ,                                       ! Dry-Bulb Temperature Range Modifier Schedule Name
  ASHRAEClearSky;                         ! Solar Model Indicator

OS:ComponentData,
  {ed9e9b55-1161-4443-b135-689590ba5db9}, ! Handle
  Component Data 1,                       ! Name
  {3a678c61-8c5f-4963-88dc-c748fe66b926}, ! UUID
  {e33a5c5a-5f56-487f-838a-0667e8ed683f}, ! Version UUID
  1366305520,                             ! Creation Timestamp
  1366305520,                             ! Version Timestamp
  {8d1f82b6-df2d-472f-8816-381e020ece67}; ! Name of Object 1

