
OS:Version,
  {ad90f461-f5b0-4587-ae06-097e660a35bd}, ! Handle
  0.9.3;                                  ! Version Identifier

OS:SizingPeriod:DesignDay,
  {fa205409-a12e-401d-b500-4fa624fab1c6}, ! Handle
  Rockford Greater Rockford Ap Ann Clg .4% Condns WB=>MDB, ! Name
  31,                                     ! Maximum Dry-Bulb Temperature {C}
  11,                                     ! Daily Dry-Bulb Temperature Range {deltaC}
  25.7,                                   ! Humidity Indicating Conditions at Maximum Dry-Bulb {BasedOnField A3}
  98675,                                  ! Barometric Pressure {Pa}
  5.3,                                    ! Wind Speed {m/s}
  210,                                    ! Wind Direction {deg}
  0,                                      ! Sky Clearness
  0,                                      ! Rain Indicator
  0,                                      ! Snow Indicator
  21,                                     ! Day of Month
  7,                                      ! Month
  SummerDesignDay,                        ! Day Type
  0,                                      ! Daylight Saving Time Indicator
  Wetbulb,                                ! Humidity Indicating Type
  ,                                       ! Humidity Indicating Day Schedule Name
  DefaultMultipliers,                     ! Dry-Bulb Temperature Range Modifier Type
  ,                                       ! Dry-Bulb Temperature Range Modifier Schedule Name
  ASHRAETau,                              ! Solar Model Indicator
  ,                                       ! Beam Solar Day Schedule Name
  ,                                       ! Diffuse Solar Day Schedule Name
  0.445,                                  ! ASHRAE Taub {dimensionless}
  2.082;                                  ! ASHRAE Taud {dimensionless}

OS:ComponentData,
  {c68f1416-678c-4ae9-bd6c-4da141ec6a18}, ! Handle
  Component Data 1,                       ! Name
  {a5e38cf1-23a5-42da-bbb3-c0f0af5f068b}, ! UUID
  {ec89eb33-ed4f-4b81-813a-0ac48c0aa791}, ! Version UUID
  1366307392,                             ! Creation Timestamp
  1366307392,                             ! Version Timestamp
  {fa205409-a12e-401d-b500-4fa624fab1c6}; ! Name of Object 1

