
OS:Version,
  {5ecacdbf-6134-4048-92d6-4eeafb217cea}, ! Handle
  0.9.3;                                  ! Version Identifier

OS:SizingPeriod:DesignDay,
  {f743233f-52a5-4cba-a688-146cfc38d1a6}, ! Handle
  Thief River Awos Ann Clg 1% Condns DP=>MDB, ! Name
  25.4,                                   ! Maximum Dry-Bulb Temperature {C}
  10.3,                                   ! Daily Dry-Bulb Temperature Range {deltaC}
  19.9,                                   ! Humidity Indicating Conditions at Maximum Dry-Bulb {BasedOnField A3}
  97307,                                  ! Barometric Pressure {Pa}
  5.7,                                    ! Wind Speed {m/s}
  200,                                    ! Wind Direction {deg}
  0,                                      ! Sky Clearness
  0,                                      ! Rain Indicator
  0,                                      ! Snow Indicator
  21,                                     ! Day of Month
  7,                                      ! Month
  SummerDesignDay,                        ! Day Type
  0,                                      ! Daylight Saving Time Indicator
  Dewpoint,                               ! Humidity Indicating Type
  ,                                       ! Humidity Indicating Day Schedule Name
  DefaultMultipliers,                     ! Dry-Bulb Temperature Range Modifier Type
  ,                                       ! Dry-Bulb Temperature Range Modifier Schedule Name
  ASHRAETau,                              ! Solar Model Indicator
  ,                                       ! Beam Solar Day Schedule Name
  ,                                       ! Diffuse Solar Day Schedule Name
  0.394,                                  ! ASHRAE Taub {dimensionless}
  2.258;                                  ! ASHRAE Taud {dimensionless}

OS:ComponentData,
  {8ab42596-d9cd-447a-b776-b65e161043c5}, ! Handle
  Component Data 1,                       ! Name
  {fd8d77d6-d0e1-41d5-b316-8520f510cf01}, ! UUID
  {e7ad3a5c-078d-4b62-b4ae-082cdd3c6317}, ! Version UUID
  1366308441,                             ! Creation Timestamp
  1366308441,                             ! Version Timestamp
  {f743233f-52a5-4cba-a688-146cfc38d1a6}; ! Name of Object 1

