
OS:Version,
  {55a36bf2-6456-4386-91d5-9de3939fdc8b}, ! Handle
  0.9.3;                                  ! Version Identifier

OS:SizingPeriod:DesignDay,
  {eb524247-599f-49ae-a299-6698dc0c51fd}, ! Handle
  VICTORIA Ann Clg 1% Condns Enth=>MDB,   ! Name
  30.7,                                   ! Maximum Dry-Bulb Temperature {C}
  10.6,                                   ! Daily Dry-Bulb Temperature Range {deltaC}
  82000,                                  ! Humidity Indicating Conditions at Maximum Dry-Bulb {BasedOnField A3}
  100941,                                 ! Barometric Pressure {Pa}
  4.9,                                    ! Wind Speed {m/s}
  170,                                    ! Wind Direction {deg}
  0,                                      ! Sky Clearness
  0,                                      ! Rain Indicator
  0,                                      ! Snow Indicator
  21,                                     ! Day of Month
  8,                                      ! Month
  SummerDesignDay,                        ! Day Type
  0,                                      ! Daylight Saving Time Indicator
  Enthalpy,                               ! Humidity Indicating Type
  ,                                       ! Humidity Indicating Day Schedule Name
  DefaultMultipliers,                     ! Dry-Bulb Temperature Range Modifier Type
  ,                                       ! Dry-Bulb Temperature Range Modifier Schedule Name
  ASHRAETau,                              ! Solar Model Indicator
  ,                                       ! Beam Solar Day Schedule Name
  ,                                       ! Diffuse Solar Day Schedule Name
  0.474,                                  ! ASHRAE Taub {dimensionless}
  2.062;                                  ! ASHRAE Taud {dimensionless}

OS:ComponentData,
  {87be3f59-981b-457d-beab-823e29313a0f}, ! Handle
  Component Data 1,                       ! Name
  {fac7d5bb-d7ef-465a-85aa-16b804e28917}, ! UUID
  {9c2c9ee8-dae2-4d36-b0d3-8a497b779ae2}, ! Version UUID
  1366310909,                             ! Creation Timestamp
  1366310909,                             ! Version Timestamp
  {eb524247-599f-49ae-a299-6698dc0c51fd}; ! Name of Object 1

