
OS:Version,
  {b70df7d5-0f60-44e2-ba8b-85f252efcad7}, ! Handle
  0.9.3;                                  ! Version Identifier

OS:SizingPeriod:DesignDay,
  {3adb49c7-e5ac-49d8-8d5d-3cca3eeb98e2}, ! Handle
  South Bend Ann Clg 2% Condns DB=>MWB,   ! Name
  29.6,                                   ! Maximum Dry-Bulb Temperature {C}
  10.4,                                   ! Daily Dry-Bulb Temperature Range {deltaC}
  21.9,                                   ! Humidity Indicating Conditions at Maximum Dry-Bulb {BasedOnField A3}
  98522,                                  ! Barometric Pressure {Pa}
  5.2,                                    ! Wind Speed {m/s}
  220,                                    ! Wind Direction {deg}
  0,                                      ! Sky Clearness
  0,                                      ! Rain Indicator
  0,                                      ! Snow Indicator
  21,                                     ! Day of Month
  7,                                      ! Month
  SummerDesignDay,                        ! Day Type
  0,                                      ! Daylight Saving Time Indicator
  Wetbulb,                                ! Humidity Indicating Type
  ,                                       ! Humidity Indicating Day Schedule Name
  DefaultMultipliers,                     ! Dry-Bulb Temperature Range Modifier Type
  ,                                       ! Dry-Bulb Temperature Range Modifier Schedule Name
  ASHRAETau,                              ! Solar Model Indicator
  ,                                       ! Beam Solar Day Schedule Name
  ,                                       ! Diffuse Solar Day Schedule Name
  0.433,                                  ! ASHRAE Taub {dimensionless}
  2.144;                                  ! ASHRAE Taud {dimensionless}

OS:ComponentData,
  {13ca1a40-19df-42d0-aa43-c1d24ee44030}, ! Handle
  Component Data 1,                       ! Name
  {aa0c2234-6961-4b4a-92ec-74337d6e5bb6}, ! UUID
  {3993db15-0b24-4355-894e-f20591c6d3c8}, ! Version UUID
  1366307479,                             ! Creation Timestamp
  1366307479,                             ! Version Timestamp
  {3adb49c7-e5ac-49d8-8d5d-3cca3eeb98e2}; ! Name of Object 1

