
OS:Version,
  {db218a41-785f-4742-9e7c-0c3d5f7415c7}, ! Handle
  0.9.3;                                  ! Version Identifier

OS:SizingPeriod:DesignDay,
  {2da37ea8-a66a-440e-a11e-26f09b6427da}, ! Handle
  Rock Springs Ann Htg 99.6% Condns DB,   ! Name
  -21.2,                                  ! Maximum Dry-Bulb Temperature {C}
  0,                                      ! Daily Dry-Bulb Temperature Range {deltaC}
  -21.2,                                  ! Humidity Indicating Conditions at Maximum Dry-Bulb {BasedOnField A3}
  78905,                                  ! Barometric Pressure {Pa}
  3.6,                                    ! Wind Speed {m/s}
  70,                                     ! Wind Direction {deg}
  0,                                      ! Sky Clearness
  0,                                      ! Rain Indicator
  0,                                      ! Snow Indicator
  21,                                     ! Day of Month
  12,                                     ! Month
  WinterDesignDay,                        ! Day Type
  0,                                      ! Daylight Saving Time Indicator
  Wetbulb,                                ! Humidity Indicating Type
  ,                                       ! Humidity Indicating Day Schedule Name
  DefaultMultipliers,                     ! Dry-Bulb Temperature Range Modifier Type
  ,                                       ! Dry-Bulb Temperature Range Modifier Schedule Name
  ASHRAEClearSky;                         ! Solar Model Indicator

OS:ComponentData,
  {aebecb02-6446-47a0-bf25-91c15fab8e17}, ! Handle
  Component Data 1,                       ! Name
  {980c58d2-a189-43f2-a437-ed92d294f156}, ! UUID
  {09ea7097-8c5c-405d-b27a-e61f45bfb41c}, ! Version UUID
  1366311731,                             ! Creation Timestamp
  1366311731,                             ! Version Timestamp
  {2da37ea8-a66a-440e-a11e-26f09b6427da}; ! Name of Object 1

