
OS:Version,
  {e1b9ce91-412e-4986-b6e5-518854c8a815}, ! Handle
  0.9.3;                                  ! Version Identifier

OS:SizingPeriod:DesignDay,
  {64d961f2-2bef-4fe1-8275-db9e7c2990fa}, ! Handle
  Pocatello Ann Clg 2% Condns DB=>MWB,    ! Name
  31.3,                                   ! Maximum Dry-Bulb Temperature {C}
  18.7,                                   ! Daily Dry-Bulb Temperature Range {deltaC}
  15.7,                                   ! Humidity Indicating Conditions at Maximum Dry-Bulb {BasedOnField A3}
  85966,                                  ! Barometric Pressure {Pa}
  4.8,                                    ! Wind Speed {m/s}
  240,                                    ! Wind Direction {deg}
  0,                                      ! Sky Clearness
  0,                                      ! Rain Indicator
  0,                                      ! Snow Indicator
  21,                                     ! Day of Month
  7,                                      ! Month
  SummerDesignDay,                        ! Day Type
  0,                                      ! Daylight Saving Time Indicator
  Wetbulb,                                ! Humidity Indicating Type
  ,                                       ! Humidity Indicating Day Schedule Name
  DefaultMultipliers,                     ! Dry-Bulb Temperature Range Modifier Type
  ,                                       ! Dry-Bulb Temperature Range Modifier Schedule Name
  ASHRAETau,                              ! Solar Model Indicator
  ,                                       ! Beam Solar Day Schedule Name
  ,                                       ! Diffuse Solar Day Schedule Name
  0.416,                                  ! ASHRAE Taub {dimensionless}
  2.003;                                  ! ASHRAE Taud {dimensionless}

OS:ComponentData,
  {67334307-74cd-479e-8869-f41b5174cb79}, ! Handle
  Component Data 1,                       ! Name
  {5490e4de-9963-4164-adfb-d2adb0fdf595}, ! UUID
  {8e204cec-7aea-470c-8a91-69b500b3c19d}, ! Version UUID
  1366307303,                             ! Creation Timestamp
  1366307303,                             ! Version Timestamp
  {64d961f2-2bef-4fe1-8275-db9e7c2990fa}; ! Name of Object 1

