
OS:Version,
  {730be3f6-ac97-4aaa-bbff-95b0385c41fc}, ! Handle
  0.9.3;                                  ! Version Identifier

OS:SizingPeriod:DesignDay,
  {6eeb7723-2f43-467c-a607-fbc9d6c95b9e}, ! Handle
  Patuxent River Nas Ann Clg .4% Condns DP=>MDB, ! Name
  28.8,                                   ! Maximum Dry-Bulb Temperature {C}
  8.6,                                    ! Daily Dry-Bulb Temperature Range {deltaC}
  24.8,                                   ! Humidity Indicating Conditions at Maximum Dry-Bulb {BasedOnField A3}
  101157,                                 ! Barometric Pressure {Pa}
  3.9,                                    ! Wind Speed {m/s}
  250,                                    ! Wind Direction {deg}
  0,                                      ! Sky Clearness
  0,                                      ! Rain Indicator
  0,                                      ! Snow Indicator
  21,                                     ! Day of Month
  7,                                      ! Month
  SummerDesignDay,                        ! Day Type
  0,                                      ! Daylight Saving Time Indicator
  Dewpoint,                               ! Humidity Indicating Type
  ,                                       ! Humidity Indicating Day Schedule Name
  DefaultMultipliers,                     ! Dry-Bulb Temperature Range Modifier Type
  ,                                       ! Dry-Bulb Temperature Range Modifier Schedule Name
  ASHRAETau,                              ! Solar Model Indicator
  ,                                       ! Beam Solar Day Schedule Name
  ,                                       ! Diffuse Solar Day Schedule Name
  0.592,                                  ! ASHRAE Taub {dimensionless}
  1.683;                                  ! ASHRAE Taud {dimensionless}

