
OS:Version,
  {e893550d-1f5b-470d-a19a-92e518c21638}, ! Handle
  0.9.3;                                  ! Version Identifier

OS:SizingPeriod:DesignDay,
  {3c78a899-485f-4d3c-94f7-f86f4ed03807}, ! Handle
  ROCHESTER Ann Clg .4% Condns DB=>MWB,   ! Name
  31.3,                                   ! Maximum Dry-Bulb Temperature {C}
  10.7,                                   ! Daily Dry-Bulb Temperature Range {deltaC}
  22.9,                                   ! Humidity Indicating Conditions at Maximum Dry-Bulb {BasedOnField A3}
  99311,                                  ! Barometric Pressure {Pa}
  5.2,                                    ! Wind Speed {m/s}
  240,                                    ! Wind Direction {deg}
  0,                                      ! Sky Clearness
  0,                                      ! Rain Indicator
  0,                                      ! Snow Indicator
  21,                                     ! Day of Month
  7,                                      ! Month
  SummerDesignDay,                        ! Day Type
  0,                                      ! Daylight Saving Time Indicator
  Wetbulb,                                ! Humidity Indicating Type
  ,                                       ! Humidity Indicating Day Schedule Name
  DefaultMultipliers,                     ! Dry-Bulb Temperature Range Modifier Type
  ,                                       ! Dry-Bulb Temperature Range Modifier Schedule Name
  ASHRAETau,                              ! Solar Model Indicator
  ,                                       ! Beam Solar Day Schedule Name
  ,                                       ! Diffuse Solar Day Schedule Name
  0.463,                                  ! ASHRAE Taub {dimensionless}
  2.001;                                  ! ASHRAE Taud {dimensionless}

OS:ComponentData,
  {0ad0ea45-29fb-4b51-82ec-fac2c4de5b1f}, ! Handle
  Component Data 1,                       ! Name
  {29a89479-80c8-4e34-8534-590879adb41b}, ! UUID
  {d34e5daf-ad71-414e-b296-05677d758456}, ! Version UUID
  1366309723,                             ! Creation Timestamp
  1366309723,                             ! Version Timestamp
  {3c78a899-485f-4d3c-94f7-f86f4ed03807}; ! Name of Object 1

