
OS:Version,
  {691892a6-3189-40cf-a686-913101c06eeb}, ! Handle
  0.9.3;                                  ! Version Identifier

OS:SizingPeriod:DesignDay,
  {97d8e2c9-06b4-4087-a9a1-689242655f30}, ! Handle
  Mankato Awos Ann Clg 2% Condns WB=>MDB, ! Name
  27.2,                                   ! Maximum Dry-Bulb Temperature {C}
  9.4,                                    ! Daily Dry-Bulb Temperature Range {deltaC}
  22.3,                                   ! Humidity Indicating Conditions at Maximum Dry-Bulb {BasedOnField A3}
  97644,                                  ! Barometric Pressure {Pa}
  6.1,                                    ! Wind Speed {m/s}
  190,                                    ! Wind Direction {deg}
  0,                                      ! Sky Clearness
  0,                                      ! Rain Indicator
  0,                                      ! Snow Indicator
  21,                                     ! Day of Month
  7,                                      ! Month
  SummerDesignDay,                        ! Day Type
  0,                                      ! Daylight Saving Time Indicator
  Wetbulb,                                ! Humidity Indicating Type
  ,                                       ! Humidity Indicating Day Schedule Name
  DefaultMultipliers,                     ! Dry-Bulb Temperature Range Modifier Type
  ,                                       ! Dry-Bulb Temperature Range Modifier Schedule Name
  ASHRAETau,                              ! Solar Model Indicator
  ,                                       ! Beam Solar Day Schedule Name
  ,                                       ! Diffuse Solar Day Schedule Name
  0.411,                                  ! ASHRAE Taub {dimensionless}
  2.205;                                  ! ASHRAE Taud {dimensionless}

OS:ComponentData,
  {7558c6b9-7dfa-4a28-9352-9341fd1095de}, ! Handle
  Component Data 1,                       ! Name
  {26ba20e0-3af4-40aa-a007-ae32b62ef097}, ! UUID
  {f03006cc-8371-4db6-8ed4-3be5756d5cfd}, ! Version UUID
  1366308294,                             ! Creation Timestamp
  1366308294,                             ! Version Timestamp
  {97d8e2c9-06b4-4087-a9a1-689242655f30}; ! Name of Object 1

