
OS:Version,
  {7bb2416a-9305-43f2-8150-dfa13915e94b}, ! Handle
  0.9.3;                                  ! Version Identifier

OS:SizingPeriod:DesignDay,
  {a2d5340b-80b4-4ab9-a100-e21e04288d31}, ! Handle
  Sioux Falls Ann Clg .4% Condns DB=>MWB, ! Name
  33.8,                                   ! Maximum Dry-Bulb Temperature {C}
  11.5,                                   ! Daily Dry-Bulb Temperature Range {deltaC}
  23.3,                                   ! Humidity Indicating Conditions at Maximum Dry-Bulb {BasedOnField A3}
  96207,                                  ! Barometric Pressure {Pa}
  6.5,                                    ! Wind Speed {m/s}
  180,                                    ! Wind Direction {deg}
  0,                                      ! Sky Clearness
  0,                                      ! Rain Indicator
  0,                                      ! Snow Indicator
  21,                                     ! Day of Month
  7,                                      ! Month
  SummerDesignDay,                        ! Day Type
  0,                                      ! Daylight Saving Time Indicator
  Wetbulb,                                ! Humidity Indicating Type
  ,                                       ! Humidity Indicating Day Schedule Name
  DefaultMultipliers,                     ! Dry-Bulb Temperature Range Modifier Type
  ,                                       ! Dry-Bulb Temperature Range Modifier Schedule Name
  ASHRAETau,                              ! Solar Model Indicator
  ,                                       ! Beam Solar Day Schedule Name
  ,                                       ! Diffuse Solar Day Schedule Name
  0.392,                                  ! ASHRAE Taub {dimensionless}
  2.283;                                  ! ASHRAE Taud {dimensionless}

OS:ComponentData,
  {12c31076-6f2f-4db6-9615-1767891cf735}, ! Handle
  Component Data 1,                       ! Name
  {ab27e4b2-f1c8-48f1-86a1-a8c169af7e0d}, ! UUID
  {1c19b2f9-e8ef-4774-ae7f-935d6791d2f6}, ! Version UUID
  1366310455,                             ! Creation Timestamp
  1366310455,                             ! Version Timestamp
  {a2d5340b-80b4-4ab9-a100-e21e04288d31}; ! Name of Object 1

