
OS:Version,
  {1297eab0-17c8-4f85-b9d2-d6a6058d1ed2}, ! Handle
  0.9.3;                                  ! Version Identifier

OS:SizingPeriod:DesignDay,
  {47e91ffa-e44e-48e0-a3bd-832ce8a70af4}, ! Handle
  Omaha/Eppley Airfield Ann Clg 1% Condns DP=>MDB, ! Name
  28.7,                                   ! Maximum Dry-Bulb Temperature {C}
  11,                                     ! Daily Dry-Bulb Temperature Range {deltaC}
  23.5,                                   ! Humidity Indicating Conditions at Maximum Dry-Bulb {BasedOnField A3}
  97784,                                  ! Barometric Pressure {Pa}
  6.1,                                    ! Wind Speed {m/s}
  180,                                    ! Wind Direction {deg}
  0,                                      ! Sky Clearness
  0,                                      ! Rain Indicator
  0,                                      ! Snow Indicator
  21,                                     ! Day of Month
  7,                                      ! Month
  SummerDesignDay,                        ! Day Type
  0,                                      ! Daylight Saving Time Indicator
  Dewpoint,                               ! Humidity Indicating Type
  ,                                       ! Humidity Indicating Day Schedule Name
  DefaultMultipliers,                     ! Dry-Bulb Temperature Range Modifier Type
  ,                                       ! Dry-Bulb Temperature Range Modifier Schedule Name
  ASHRAETau,                              ! Solar Model Indicator
  ,                                       ! Beam Solar Day Schedule Name
  ,                                       ! Diffuse Solar Day Schedule Name
  0.421,                                  ! ASHRAE Taub {dimensionless}
  2.196;                                  ! ASHRAE Taud {dimensionless}

OS:ComponentData,
  {bf56176a-9977-46a6-827d-6d4b595705c9}, ! Handle
  Component Data 1,                       ! Name
  {be856029-e2a9-4ce0-8aec-5328cbca476c}, ! UUID
  {80288774-565c-4048-a7b5-cc06e2523e30}, ! Version UUID
  1366309170,                             ! Creation Timestamp
  1366309170,                             ! Version Timestamp
  {47e91ffa-e44e-48e0-a3bd-832ce8a70af4}; ! Name of Object 1

