
OS:Version,
  {c6283484-1a7a-4a11-91b7-01a8d6c16381}, ! Handle
  0.9.3;                                  ! Version Identifier

OS:SizingPeriod:DesignDay,
  {45853a26-0cdf-4ecd-9235-3b04c07f4e09}, ! Handle
  PUEBLO Ann Clg 1% Condns DB=>MWB,       ! Name
  35.4,                                   ! Maximum Dry-Bulb Temperature {C}
  18,                                     ! Daily Dry-Bulb Temperature Range {deltaC}
  16.9,                                   ! Humidity Indicating Conditions at Maximum Dry-Bulb {BasedOnField A3}
  85191,                                  ! Barometric Pressure {Pa}
  5.1,                                    ! Wind Speed {m/s}
  120,                                    ! Wind Direction {deg}
  0,                                      ! Sky Clearness
  0,                                      ! Rain Indicator
  0,                                      ! Snow Indicator
  21,                                     ! Day of Month
  7,                                      ! Month
  SummerDesignDay,                        ! Day Type
  0,                                      ! Daylight Saving Time Indicator
  Wetbulb,                                ! Humidity Indicating Type
  ,                                       ! Humidity Indicating Day Schedule Name
  DefaultMultipliers,                     ! Dry-Bulb Temperature Range Modifier Type
  ,                                       ! Dry-Bulb Temperature Range Modifier Schedule Name
  ASHRAETau,                              ! Solar Model Indicator
  ,                                       ! Beam Solar Day Schedule Name
  ,                                       ! Diffuse Solar Day Schedule Name
  0.435,                                  ! ASHRAE Taub {dimensionless}
  1.969;                                  ! ASHRAE Taud {dimensionless}

OS:ComponentData,
  {04c0e700-6f07-478b-8960-7616e47f73b4}, ! Handle
  Component Data 1,                       ! Name
  {16905213-063d-4fd0-9135-a88db82be148}, ! UUID
  {2f519fc8-2423-4529-950c-2c5ed1dd594b}, ! Version UUID
  1366306726,                             ! Creation Timestamp
  1366306726,                             ! Version Timestamp
  {45853a26-0cdf-4ecd-9235-3b04c07f4e09}; ! Name of Object 1

