
OS:Version,
  {aacd5519-3b52-4bf5-924c-c950140d5a0b}, ! Handle
  0.9.3;                                  ! Version Identifier

OS:SizingPeriod:DesignDay,
  {d10cb9a4-5c74-40af-9616-c6d0f5f5940b}, ! Handle
  REDMOND Ann Clg 2% Condns DB=>MWB,      ! Name
  30.3,                                   ! Maximum Dry-Bulb Temperature {C}
  20,                                     ! Daily Dry-Bulb Temperature Range {deltaC}
  15.4,                                   ! Humidity Indicating Conditions at Maximum Dry-Bulb {BasedOnField A3}
  90531,                                  ! Barometric Pressure {Pa}
  4.7,                                    ! Wind Speed {m/s}
  350,                                    ! Wind Direction {deg}
  0,                                      ! Sky Clearness
  0,                                      ! Rain Indicator
  0,                                      ! Snow Indicator
  21,                                     ! Day of Month
  7,                                      ! Month
  SummerDesignDay,                        ! Day Type
  0,                                      ! Daylight Saving Time Indicator
  Wetbulb,                                ! Humidity Indicating Type
  ,                                       ! Humidity Indicating Day Schedule Name
  DefaultMultipliers,                     ! Dry-Bulb Temperature Range Modifier Type
  ,                                       ! Dry-Bulb Temperature Range Modifier Schedule Name
  ASHRAETau,                              ! Solar Model Indicator
  ,                                       ! Beam Solar Day Schedule Name
  ,                                       ! Diffuse Solar Day Schedule Name
  0.355,                                  ! ASHRAE Taub {dimensionless}
  2.422;                                  ! ASHRAE Taud {dimensionless}

OS:ComponentData,
  {1e6d9497-c781-4c71-87f1-965227e0beb3}, ! Handle
  Component Data 1,                       ! Name
  {ce186449-2860-4c74-8e1c-345705cc5c61}, ! UUID
  {058c8b13-e263-4faa-89be-284200de9933}, ! Version UUID
  1366310102,                             ! Creation Timestamp
  1366310102,                             ! Version Timestamp
  {d10cb9a4-5c74-40af-9616-c6d0f5f5940b}; ! Name of Object 1

