
OS:Version,
  {89dd93fe-0b14-4aae-a9d9-ca75b99e10ed}, ! Handle
  0.9.3;                                  ! Version Identifier

OS:SizingPeriod:DesignDay,
  {5b73213e-5bef-4470-9a0b-6986de665702}, ! Handle
  Stuttgart  Awos Ann Clg .4% Condns Enth=>MDB, ! Name
  32.3,                                   ! Maximum Dry-Bulb Temperature {C}
  9.6,                                    ! Daily Dry-Bulb Temperature Range {deltaC}
  84600,                                  ! Humidity Indicating Conditions at Maximum Dry-Bulb {BasedOnField A3}
  100511,                                 ! Barometric Pressure {Pa}
  3.7,                                    ! Wind Speed {m/s}
  220,                                    ! Wind Direction {deg}
  0,                                      ! Sky Clearness
  0,                                      ! Rain Indicator
  0,                                      ! Snow Indicator
  21,                                     ! Day of Month
  7,                                      ! Month
  SummerDesignDay,                        ! Day Type
  0,                                      ! Daylight Saving Time Indicator
  Enthalpy,                               ! Humidity Indicating Type
  ,                                       ! Humidity Indicating Day Schedule Name
  DefaultMultipliers,                     ! Dry-Bulb Temperature Range Modifier Type
  ,                                       ! Dry-Bulb Temperature Range Modifier Schedule Name
  ASHRAETau,                              ! Solar Model Indicator
  ,                                       ! Beam Solar Day Schedule Name
  ,                                       ! Diffuse Solar Day Schedule Name
  0.515,                                  ! ASHRAE Taub {dimensionless}
  1.894;                                  ! ASHRAE Taud {dimensionless}

OS:ComponentData,
  {2fdd8bdf-6700-4903-bb66-df1d43e15703}, ! Handle
  Component Data 1,                       ! Name
  {ac39a2d5-56e0-48d0-9b61-7e253eef2174}, ! UUID
  {e4496cad-1b66-4617-b021-e55defeb1b64}, ! Version UUID
  1366306250,                             ! Creation Timestamp
  1366306250,                             ! Version Timestamp
  {5b73213e-5bef-4470-9a0b-6986de665702}; ! Name of Object 1

