
OS:Version,
  {daf6ff1b-b15c-415a-a5e5-c73cc445e842}, ! Handle
  0.9.3;                                  ! Version Identifier

OS:SizingPeriod:DesignDay,
  {9123cf1e-f172-4e6d-90fa-a5a56c4f5662}, ! Handle
  RALEIGH Ann Clg .4% Condns WB=>MDB,     ! Name
  31.8,                                   ! Maximum Dry-Bulb Temperature {C}
  10.5,                                   ! Daily Dry-Bulb Temperature Range {deltaC}
  25.7,                                   ! Humidity Indicating Conditions at Maximum Dry-Bulb {BasedOnField A3}
  99726,                                  ! Barometric Pressure {Pa}
  4,                                      ! Wind Speed {m/s}
  240,                                    ! Wind Direction {deg}
  0,                                      ! Sky Clearness
  0,                                      ! Rain Indicator
  0,                                      ! Snow Indicator
  21,                                     ! Day of Month
  7,                                      ! Month
  SummerDesignDay,                        ! Day Type
  0,                                      ! Daylight Saving Time Indicator
  Wetbulb,                                ! Humidity Indicating Type
  ,                                       ! Humidity Indicating Day Schedule Name
  DefaultMultipliers,                     ! Dry-Bulb Temperature Range Modifier Type
  ,                                       ! Dry-Bulb Temperature Range Modifier Schedule Name
  ASHRAETau,                              ! Solar Model Indicator
  ,                                       ! Beam Solar Day Schedule Name
  ,                                       ! Diffuse Solar Day Schedule Name
  0.577,                                  ! ASHRAE Taub {dimensionless}
  1.722;                                  ! ASHRAE Taud {dimensionless}

OS:ComponentData,
  {041e59b1-7c1b-4345-b144-a2bb05eef197}, ! Handle
  Component Data 1,                       ! Name
  {28865104-8a85-42d7-be63-f1124cf5684b}, ! UUID
  {512db4d5-7d3c-4643-834d-58a0ec45dcd5}, ! Version UUID
  1366308965,                             ! Creation Timestamp
  1366308965,                             ! Version Timestamp
  {9123cf1e-f172-4e6d-90fa-a5a56c4f5662}; ! Name of Object 1

