
OS:Version,
  {adb1948f-e5ab-4511-9da2-4517a7218b3f}, ! Handle
  0.9.3;                                  ! Version Identifier

OS:SizingPeriod:DesignDay,
  {2c4651b0-7d4e-4716-877f-3ffdb0064af2}, ! Handle
  Salt Lake City IntL Arpt  Isi Ann Htg Wind 99% Condns WS=>MCDB, ! Name
  5.8,                                    ! Maximum Dry-Bulb Temperature {C}
  0,                                      ! Daily Dry-Bulb Temperature Range {deltaC}
  5.8,                                    ! Humidity Indicating Conditions at Maximum Dry-Bulb {BasedOnField A3}
  86779,                                  ! Barometric Pressure {Pa}
  11.1,                                   ! Wind Speed {m/s}
  150,                                    ! Wind Direction {deg}
  0,                                      ! Sky Clearness
  0,                                      ! Rain Indicator
  0,                                      ! Snow Indicator
  21,                                     ! Day of Month
  1,                                      ! Month
  WinterDesignDay,                        ! Day Type
  0,                                      ! Daylight Saving Time Indicator
  Wetbulb,                                ! Humidity Indicating Type
  ,                                       ! Humidity Indicating Day Schedule Name
  DefaultMultipliers,                     ! Dry-Bulb Temperature Range Modifier Type
  ,                                       ! Dry-Bulb Temperature Range Modifier Schedule Name
  ASHRAEClearSky;                         ! Solar Model Indicator

OS:ComponentData,
  {b43736e2-686c-4708-bc97-dcce1e0189fa}, ! Handle
  Component Data 1,                       ! Name
  {fa31eef6-888a-4d89-876e-bc98ac1b4012}, ! UUID
  {758546a6-1824-48d2-86dd-6bd6110b9f3b}, ! Version UUID
  1366310998,                             ! Creation Timestamp
  1366310998,                             ! Version Timestamp
  {2c4651b0-7d4e-4716-877f-3ffdb0064af2}; ! Name of Object 1

