
OS:Version,
  {9dc51fc9-5187-44d0-9745-39d6733850fd}, ! Handle
  0.9.3;                                  ! Version Identifier

OS:SizingPeriod:DesignDay,
  {c05eb10a-6acd-40a9-a35a-f621695b1345}, ! Handle
  Mcconnell Afb Ann Clg 2% Condns DP=>MDB, ! Name
  27.4,                                   ! Maximum Dry-Bulb Temperature {C}
  11.9,                                   ! Daily Dry-Bulb Temperature Range {deltaC}
  22.2,                                   ! Humidity Indicating Conditions at Maximum Dry-Bulb {BasedOnField A3}
  96449,                                  ! Barometric Pressure {Pa}
  5.6,                                    ! Wind Speed {m/s}
  190,                                    ! Wind Direction {deg}
  0,                                      ! Sky Clearness
  0,                                      ! Rain Indicator
  0,                                      ! Snow Indicator
  21,                                     ! Day of Month
  7,                                      ! Month
  SummerDesignDay,                        ! Day Type
  0,                                      ! Daylight Saving Time Indicator
  Dewpoint,                               ! Humidity Indicating Type
  ,                                       ! Humidity Indicating Day Schedule Name
  DefaultMultipliers,                     ! Dry-Bulb Temperature Range Modifier Type
  ,                                       ! Dry-Bulb Temperature Range Modifier Schedule Name
  ASHRAETau,                              ! Solar Model Indicator
  ,                                       ! Beam Solar Day Schedule Name
  ,                                       ! Diffuse Solar Day Schedule Name
  0.419,                                  ! ASHRAE Taub {dimensionless}
  2.206;                                  ! ASHRAE Taud {dimensionless}

OS:ComponentData,
  {663bd79b-a7ff-4ffa-a121-be7cbe32b17f}, ! Handle
  Component Data 1,                       ! Name
  {87a2a249-9567-43c3-b8c4-6fdf229ad283}, ! UUID
  {e50ba238-4e26-433a-bbd3-28d6bbdbef77}, ! Version UUID
  1366307600,                             ! Creation Timestamp
  1366307600,                             ! Version Timestamp
  {c05eb10a-6acd-40a9-a35a-f621695b1345}; ! Name of Object 1

