
OS:Version,
  {a0276574-7e25-4876-a1b5-28be08ee0abf}, ! Handle
  0.9.3;                                  ! Version Identifier

OS:SizingPeriod:DesignDay,
  {4f663063-f152-410e-9b81-bd05905368c7}, ! Handle
  Miami Intl Ap Ann Clg .4% Condns DB=>MWB, ! Name
  33.2,                                   ! Maximum Dry-Bulb Temperature {C}
  6.7,                                    ! Daily Dry-Bulb Temperature Range {deltaC}
  25.3,                                   ! Humidity Indicating Conditions at Maximum Dry-Bulb {BasedOnField A3}
  101193,                                 ! Barometric Pressure {Pa}
  4.5,                                    ! Wind Speed {m/s}
  140,                                    ! Wind Direction {deg}
  0,                                      ! Sky Clearness
  0,                                      ! Rain Indicator
  0,                                      ! Snow Indicator
  21,                                     ! Day of Month
  7,                                      ! Month
  SummerDesignDay,                        ! Day Type
  0,                                      ! Daylight Saving Time Indicator
  Wetbulb,                                ! Humidity Indicating Type
  ,                                       ! Humidity Indicating Day Schedule Name
  DefaultMultipliers,                     ! Dry-Bulb Temperature Range Modifier Type
  ,                                       ! Dry-Bulb Temperature Range Modifier Schedule Name
  ASHRAETau,                              ! Solar Model Indicator
  ,                                       ! Beam Solar Day Schedule Name
  ,                                       ! Diffuse Solar Day Schedule Name
  0.528,                                  ! ASHRAE Taub {dimensionless}
  1.905;                                  ! ASHRAE Taud {dimensionless}

OS:ComponentData,
  {e8467acd-cf1f-4b84-ba88-da8a8643a811}, ! Handle
  Component Data 1,                       ! Name
  {e9d2c663-e905-4170-8d46-0a20f6fa4fc6}, ! UUID
  {257bbeb0-d0f5-4961-bbf8-67a7350b30a7}, ! Version UUID
  1366306866,                             ! Creation Timestamp
  1366306866,                             ! Version Timestamp
  {4f663063-f152-410e-9b81-bd05905368c7}; ! Name of Object 1

