
OS:Version,
  {16a273aa-5352-4ead-866e-f370284130bc}, ! Handle
  0.9.3;                                  ! Version Identifier

OS:SizingPeriod:DesignDay,
  {46cb42a1-b32a-411e-bc4f-b1037816d563}, ! Handle
  Marietta Dobbins Afb Ann Clg .4% Condns Enth=>MDB, ! Name
  31.2,                                   ! Maximum Dry-Bulb Temperature {C}
  9.6,                                    ! Daily Dry-Bulb Temperature Range {deltaC}
  77300,                                  ! Humidity Indicating Conditions at Maximum Dry-Bulb {BasedOnField A3}
  97423,                                  ! Barometric Pressure {Pa}
  2.7,                                    ! Wind Speed {m/s}
  300,                                    ! Wind Direction {deg}
  0,                                      ! Sky Clearness
  0,                                      ! Rain Indicator
  0,                                      ! Snow Indicator
  21,                                     ! Day of Month
  7,                                      ! Month
  SummerDesignDay,                        ! Day Type
  0,                                      ! Daylight Saving Time Indicator
  Enthalpy,                               ! Humidity Indicating Type
  ,                                       ! Humidity Indicating Day Schedule Name
  DefaultMultipliers,                     ! Dry-Bulb Temperature Range Modifier Type
  ,                                       ! Dry-Bulb Temperature Range Modifier Schedule Name
  ASHRAETau,                              ! Solar Model Indicator
  ,                                       ! Beam Solar Day Schedule Name
  ,                                       ! Diffuse Solar Day Schedule Name
  0.558,                                  ! ASHRAE Taub {dimensionless}
  1.77;                                   ! ASHRAE Taud {dimensionless}

OS:ComponentData,
  {948c8732-1083-45a8-84f9-6907fd4e797f}, ! Handle
  Component Data 1,                       ! Name
  {130b3a9f-8a2b-4bd6-bc35-dfb6384a4477}, ! UUID
  {8bc75c57-63fc-4d44-bc1b-b381435c95a9}, ! Version UUID
  1366307032,                             ! Creation Timestamp
  1366307032,                             ! Version Timestamp
  {46cb42a1-b32a-411e-bc4f-b1037816d563}; ! Name of Object 1

