
OS:Version,
  {09b58047-d2e8-4b9d-9e36-708b45c37d6d}, ! Handle
  0.9.3;                                  ! Version Identifier

OS:SizingPeriod:DesignDay,
  {3c6df466-d9af-4152-98d6-b915b3f36be3}, ! Handle
  Pease Intl Tradepor Ann Clg 1% Condns WB=>MDB, ! Name
  27.8,                                   ! Maximum Dry-Bulb Temperature {C}
  10.1,                                   ! Daily Dry-Bulb Temperature Range {deltaC}
  23.1,                                   ! Humidity Indicating Conditions at Maximum Dry-Bulb {BasedOnField A3}
  100953,                                 ! Barometric Pressure {Pa}
  4.1,                                    ! Wind Speed {m/s}
  260,                                    ! Wind Direction {deg}
  0,                                      ! Sky Clearness
  0,                                      ! Rain Indicator
  0,                                      ! Snow Indicator
  21,                                     ! Day of Month
  7,                                      ! Month
  SummerDesignDay,                        ! Day Type
  0,                                      ! Daylight Saving Time Indicator
  Wetbulb,                                ! Humidity Indicating Type
  ,                                       ! Humidity Indicating Day Schedule Name
  DefaultMultipliers,                     ! Dry-Bulb Temperature Range Modifier Type
  ,                                       ! Dry-Bulb Temperature Range Modifier Schedule Name
  ASHRAETau,                              ! Solar Model Indicator
  ,                                       ! Beam Solar Day Schedule Name
  ,                                       ! Diffuse Solar Day Schedule Name
  0.477,                                  ! ASHRAE Taub {dimensionless}
  1.97;                                   ! ASHRAE Taud {dimensionless}

OS:ComponentData,
  {8ea19d6f-f6ee-44ec-b445-74a707372f45}, ! Handle
  Component Data 1,                       ! Name
  {d4b75d23-9a42-4667-ae11-7c0fce868e28}, ! UUID
  {a25150ed-9254-4e83-a1b0-a76b7e1b930c}, ! Version UUID
  1366309277,                             ! Creation Timestamp
  1366309277,                             ! Version Timestamp
  {3c6df466-d9af-4152-98d6-b915b3f36be3}; ! Name of Object 1

