
OS:Version,
  {86d83271-f0b1-45e3-bce3-f87cafe92ff5}, ! Handle
  0.9.3;                                  ! Version Identifier

OS:SizingPeriod:DesignDay,
  {57a3e9ea-a43b-49fe-92d0-6b3e1f944cce}, ! Handle
  NASHVILLE Ann Clg .4% Condns DB=>MWB,   ! Name
  34.7,                                   ! Maximum Dry-Bulb Temperature {C}
  10.2,                                   ! Daily Dry-Bulb Temperature Range {deltaC}
  23.9,                                   ! Humidity Indicating Conditions at Maximum Dry-Bulb {BasedOnField A3}
  99181,                                  ! Barometric Pressure {Pa}
  3.5,                                    ! Wind Speed {m/s}
  230,                                    ! Wind Direction {deg}
  0,                                      ! Sky Clearness
  0,                                      ! Rain Indicator
  0,                                      ! Snow Indicator
  21,                                     ! Day of Month
  7,                                      ! Month
  SummerDesignDay,                        ! Day Type
  0,                                      ! Daylight Saving Time Indicator
  Wetbulb,                                ! Humidity Indicating Type
  ,                                       ! Humidity Indicating Day Schedule Name
  DefaultMultipliers,                     ! Dry-Bulb Temperature Range Modifier Type
  ,                                       ! Dry-Bulb Temperature Range Modifier Schedule Name
  ASHRAETau,                              ! Solar Model Indicator
  ,                                       ! Beam Solar Day Schedule Name
  ,                                       ! Diffuse Solar Day Schedule Name
  0.524,                                  ! ASHRAE Taub {dimensionless}
  1.855;                                  ! ASHRAE Taud {dimensionless}

OS:ComponentData,
  {f927ec40-4b5f-4420-a531-332af4f0c137}, ! Handle
  Component Data 1,                       ! Name
  {4b629776-a152-4591-9a89-95c3c1b660b9}, ! UUID
  {e51931d6-9003-45dc-b451-09a5cf18188f}, ! Version UUID
  1366310533,                             ! Creation Timestamp
  1366310533,                             ! Version Timestamp
  {57a3e9ea-a43b-49fe-92d0-6b3e1f944cce}; ! Name of Object 1

