
OS:Version,
  {14384c55-f9b9-4360-a341-37d9697a491f}, ! Handle
  0.9.3;                                  ! Version Identifier

OS:SizingPeriod:DesignDay,
  {cf118789-5d9d-4f2d-9379-d1967f65b266}, ! Handle
  Manistee  Awos Ann Clg 1% Condns DP=>MDB, ! Name
  25.3,                                   ! Maximum Dry-Bulb Temperature {C}
  11,                                     ! Daily Dry-Bulb Temperature Range {deltaC}
  20.9,                                   ! Humidity Indicating Conditions at Maximum Dry-Bulb {BasedOnField A3}
  99075,                                  ! Barometric Pressure {Pa}
  4.6,                                    ! Wind Speed {m/s}
  200,                                    ! Wind Direction {deg}
  0,                                      ! Sky Clearness
  0,                                      ! Rain Indicator
  0,                                      ! Snow Indicator
  21,                                     ! Day of Month
  7,                                      ! Month
  SummerDesignDay,                        ! Day Type
  0,                                      ! Daylight Saving Time Indicator
  Dewpoint,                               ! Humidity Indicating Type
  ,                                       ! Humidity Indicating Day Schedule Name
  DefaultMultipliers,                     ! Dry-Bulb Temperature Range Modifier Type
  ,                                       ! Dry-Bulb Temperature Range Modifier Schedule Name
  ASHRAETau,                              ! Solar Model Indicator
  ,                                       ! Beam Solar Day Schedule Name
  ,                                       ! Diffuse Solar Day Schedule Name
  0.429,                                  ! ASHRAE Taub {dimensionless}
  2.158;                                  ! ASHRAE Taud {dimensionless}

OS:ComponentData,
  {0b5fd322-24d4-4862-82e8-b88b417fd1f6}, ! Handle
  Component Data 1,                       ! Name
  {d9e97214-4066-4f30-853f-f1d2c97e067c}, ! UUID
  {3b2b7136-926c-441b-ad54-8b4e1c6e4d7f}, ! Version UUID
  1366308061,                             ! Creation Timestamp
  1366308061,                             ! Version Timestamp
  {cf118789-5d9d-4f2d-9379-d1967f65b266}; ! Name of Object 1

