
OS:Version,
  {5371e506-95fb-4bf8-a173-612ae15def6b}, ! Handle
  0.9.3;                                  ! Version Identifier

OS:SizingPeriod:DesignDay,
  {1ae3d2a6-2dda-443e-93e4-2acca24818db}, ! Handle
  Williston Sloulin Intl Ap Ann Clg 1% Condns Enth=>MDB, ! Name
  29.2,                                   ! Maximum Dry-Bulb Temperature {C}
  14.5,                                   ! Daily Dry-Bulb Temperature Range {deltaC}
  62400,                                  ! Humidity Indicating Conditions at Maximum Dry-Bulb {BasedOnField A3}
  94549,                                  ! Barometric Pressure {Pa}
  5.5,                                    ! Wind Speed {m/s}
  150,                                    ! Wind Direction {deg}
  0,                                      ! Sky Clearness
  0,                                      ! Rain Indicator
  0,                                      ! Snow Indicator
  21,                                     ! Day of Month
  7,                                      ! Month
  SummerDesignDay,                        ! Day Type
  0,                                      ! Daylight Saving Time Indicator
  Enthalpy,                               ! Humidity Indicating Type
  ,                                       ! Humidity Indicating Day Schedule Name
  DefaultMultipliers,                     ! Dry-Bulb Temperature Range Modifier Type
  ,                                       ! Dry-Bulb Temperature Range Modifier Schedule Name
  ASHRAETau,                              ! Solar Model Indicator
  ,                                       ! Beam Solar Day Schedule Name
  ,                                       ! Diffuse Solar Day Schedule Name
  0.388,                                  ! ASHRAE Taub {dimensionless}
  2.236;                                  ! ASHRAE Taud {dimensionless}

OS:ComponentData,
  {a29f5589-c865-416e-b37a-7267f0edf593}, ! Handle
  Component Data 1,                       ! Name
  {0b666ba6-4e67-43a2-bd90-b4e98e9e6d49}, ! UUID
  {3f5e4443-164f-4c9e-9f89-16e423c95515}, ! Version UUID
  1366309075,                             ! Creation Timestamp
  1366309075,                             ! Version Timestamp
  {1ae3d2a6-2dda-443e-93e4-2acca24818db}; ! Name of Object 1

