
OS:Version,
  {150d0079-aa72-46d6-91c3-b8e2d3be1cca}, ! Handle
  0.9.3;                                  ! Version Identifier

OS:SizingPeriod:DesignDay,
  {4536134a-ec68-400f-ad13-ebde9318ce24}, ! Handle
  San Antonio/Randolph A Ann Htg Wind 99.6% Condns WS=>MCDB, ! Name
  8.2,                                    ! Maximum Dry-Bulb Temperature {C}
  0,                                      ! Daily Dry-Bulb Temperature Range {deltaC}
  8.2,                                    ! Humidity Indicating Conditions at Maximum Dry-Bulb {BasedOnField A3}
  98569,                                  ! Barometric Pressure {Pa}
  10.9,                                   ! Wind Speed {m/s}
  10,                                     ! Wind Direction {deg}
  0,                                      ! Sky Clearness
  0,                                      ! Rain Indicator
  0,                                      ! Snow Indicator
  21,                                     ! Day of Month
  1,                                      ! Month
  WinterDesignDay,                        ! Day Type
  0,                                      ! Daylight Saving Time Indicator
  Wetbulb,                                ! Humidity Indicating Type
  ,                                       ! Humidity Indicating Day Schedule Name
  DefaultMultipliers,                     ! Dry-Bulb Temperature Range Modifier Type
  ,                                       ! Dry-Bulb Temperature Range Modifier Schedule Name
  ASHRAEClearSky;                         ! Solar Model Indicator

OS:ComponentData,
  {8d25a5d1-7d5c-4468-8b32-92d8fecc1c48}, ! Handle
  Component Data 1,                       ! Name
  {53afa350-f998-47c1-b15b-644248af0866}, ! UUID
  {98b050c4-8a8a-46b3-9de6-080b897bbc21}, ! Version UUID
  1366310893,                             ! Creation Timestamp
  1366310893,                             ! Version Timestamp
  {4536134a-ec68-400f-ad13-ebde9318ce24}; ! Name of Object 1

