
OS:Version,
  {1b58be0d-4143-4f32-bffd-7445e17e21b5}, ! Handle
  0.9.3;                                  ! Version Identifier

OS:SizingPeriod:DesignDay,
  {3f4634cd-e484-48c2-acfa-931bd29e9a2b}, ! Handle
  Point Mugu Nf Ann Clg 2% Condns WB=>MDB, ! Name
  22.8,                                   ! Maximum Dry-Bulb Temperature {C}
  7.8,                                    ! Daily Dry-Bulb Temperature Range {deltaC}
  19.5,                                   ! Humidity Indicating Conditions at Maximum Dry-Bulb {BasedOnField A3}
  101289,                                 ! Barometric Pressure {Pa}
  5.2,                                    ! Wind Speed {m/s}
  50,                                     ! Wind Direction {deg}
  0,                                      ! Sky Clearness
  0,                                      ! Rain Indicator
  0,                                      ! Snow Indicator
  21,                                     ! Day of Month
  8,                                      ! Month
  SummerDesignDay,                        ! Day Type
  0,                                      ! Daylight Saving Time Indicator
  Wetbulb,                                ! Humidity Indicating Type
  ,                                       ! Humidity Indicating Day Schedule Name
  DefaultMultipliers,                     ! Dry-Bulb Temperature Range Modifier Type
  ,                                       ! Dry-Bulb Temperature Range Modifier Schedule Name
  ASHRAETau,                              ! Solar Model Indicator
  ,                                       ! Beam Solar Day Schedule Name
  ,                                       ! Diffuse Solar Day Schedule Name
  0.425,                                  ! ASHRAE Taub {dimensionless}
  2.2;                                    ! ASHRAE Taud {dimensionless}

OS:ComponentData,
  {fba7934e-bb01-49f4-990c-673f4baba318}, ! Handle
  Component Data 1,                       ! Name
  {4331e69f-7b6e-4c9a-86b4-78e68d10dfa9}, ! UUID
  {5880205d-af53-43be-a7fd-ef9f6c2631b3}, ! Version UUID
  1366306539,                             ! Creation Timestamp
  1366306539,                             ! Version Timestamp
  {3f4634cd-e484-48c2-acfa-931bd29e9a2b}; ! Name of Object 1

