
OS:Version,
  {4741043b-ad8a-49c9-98d0-15dd448b7f57}, ! Handle
  0.9.3;                                  ! Version Identifier

OS:SizingPeriod:DesignDay,
  {c3955f7d-fac2-47ae-95a0-be58a9436499}, ! Handle
  Quantico Mcas Ann Clg 2% Condns Enth=>MDB, ! Name
  29.8,                                   ! Maximum Dry-Bulb Temperature {C}
  9.5,                                    ! Daily Dry-Bulb Temperature Range {deltaC}
  75100,                                  ! Humidity Indicating Conditions at Maximum Dry-Bulb {BasedOnField A3}
  101277,                                 ! Barometric Pressure {Pa}
  2.6,                                    ! Wind Speed {m/s}
  170,                                    ! Wind Direction {deg}
  0,                                      ! Sky Clearness
  0,                                      ! Rain Indicator
  0,                                      ! Snow Indicator
  21,                                     ! Day of Month
  7,                                      ! Month
  SummerDesignDay,                        ! Day Type
  0,                                      ! Daylight Saving Time Indicator
  Enthalpy,                               ! Humidity Indicating Type
  ,                                       ! Humidity Indicating Day Schedule Name
  DefaultMultipliers,                     ! Dry-Bulb Temperature Range Modifier Type
  ,                                       ! Dry-Bulb Temperature Range Modifier Schedule Name
  ASHRAETau,                              ! Solar Model Indicator
  ,                                       ! Beam Solar Day Schedule Name
  ,                                       ! Diffuse Solar Day Schedule Name
  0.574,                                  ! ASHRAE Taub {dimensionless}
  1.726;                                  ! ASHRAE Taud {dimensionless}

OS:ComponentData,
  {a716e527-76ee-4279-b977-cd49e31d3162}, ! Handle
  Component Data 1,                       ! Name
  {f95e9fb0-8da5-4f26-bf3f-2bd36a88c429}, ! UUID
  {9266a564-6aab-476f-b84d-c545c37d5ebb}, ! Version UUID
  1366311160,                             ! Creation Timestamp
  1366311160,                             ! Version Timestamp
  {c3955f7d-fac2-47ae-95a0-be58a9436499}; ! Name of Object 1

