
OS:Version,
  {15385fd2-0601-408d-a041-a5ebe9bbbdc7}, ! Handle
  0.9.3;                                  ! Version Identifier

OS:SizingPeriod:DesignDay,
  {38cb3078-07e9-485c-9220-d6ad8fa7fb88}, ! Handle
  Tallahassee Regional Ap  Isis Ann Htg Wind 99.6% Condns WS=>MCDB, ! Name
  14.8,                                   ! Maximum Dry-Bulb Temperature {C}
  0,                                      ! Daily Dry-Bulb Temperature Range {deltaC}
  14.8,                                   ! Humidity Indicating Conditions at Maximum Dry-Bulb {BasedOnField A3}
  101073,                                 ! Barometric Pressure {Pa}
  9,                                      ! Wind Speed {m/s}
  350,                                    ! Wind Direction {deg}
  0,                                      ! Sky Clearness
  0,                                      ! Rain Indicator
  0,                                      ! Snow Indicator
  21,                                     ! Day of Month
  1,                                      ! Month
  WinterDesignDay,                        ! Day Type
  0,                                      ! Daylight Saving Time Indicator
  Wetbulb,                                ! Humidity Indicating Type
  ,                                       ! Humidity Indicating Day Schedule Name
  DefaultMultipliers,                     ! Dry-Bulb Temperature Range Modifier Type
  ,                                       ! Dry-Bulb Temperature Range Modifier Schedule Name
  ASHRAEClearSky;                         ! Solar Model Indicator

OS:ComponentData,
  {18e70f6c-1b97-4729-9c66-6c97e3db9c22}, ! Handle
  Component Data 1,                       ! Name
  {ff5f9058-deac-49c7-aa63-7a788bf74960}, ! UUID
  {71386dea-f9c3-4209-84b2-e054cc8d9deb}, ! Version UUID
  1366306926,                             ! Creation Timestamp
  1366306926,                             ! Version Timestamp
  {38cb3078-07e9-485c-9220-d6ad8fa7fb88}; ! Name of Object 1

