
OS:Version,
  {6fa39014-d50e-44f2-9d4e-ed7907670534}, ! Handle
  0.9.3;                                  ! Version Identifier

OS:SizingPeriod:DesignDay,
  {a0739db4-5704-4cf3-8116-0e327b90bdda}, ! Handle
  Tucson International Ap Ann Clg .4% Condns DB=>MWB, ! Name
  41.1,                                   ! Maximum Dry-Bulb Temperature {C}
  13.8,                                   ! Daily Dry-Bulb Temperature Range {deltaC}
  19,                                     ! Humidity Indicating Conditions at Maximum Dry-Bulb {BasedOnField A3}
  92332,                                  ! Barometric Pressure {Pa}
  5,                                      ! Wind Speed {m/s}
  300,                                    ! Wind Direction {deg}
  0,                                      ! Sky Clearness
  0,                                      ! Rain Indicator
  0,                                      ! Snow Indicator
  21,                                     ! Day of Month
  7,                                      ! Month
  SummerDesignDay,                        ! Day Type
  0,                                      ! Daylight Saving Time Indicator
  Wetbulb,                                ! Humidity Indicating Type
  ,                                       ! Humidity Indicating Day Schedule Name
  DefaultMultipliers,                     ! Dry-Bulb Temperature Range Modifier Type
  ,                                       ! Dry-Bulb Temperature Range Modifier Schedule Name
  ASHRAETau,                              ! Solar Model Indicator
  ,                                       ! Beam Solar Day Schedule Name
  ,                                       ! Diffuse Solar Day Schedule Name
  0.555,                                  ! ASHRAE Taub {dimensionless}
  1.73;                                   ! ASHRAE Taud {dimensionless}

OS:ComponentData,
  {e498e821-9d99-424b-ba1b-3c999482361d}, ! Handle
  Component Data 1,                       ! Name
  {8b00b802-8fa9-4e9e-914f-336e9d82b49d}, ! UUID
  {5b739ac4-f05b-4844-9203-1823a5879c82}, ! Version UUID
  1366306325,                             ! Creation Timestamp
  1366306325,                             ! Version Timestamp
  {a0739db4-5704-4cf3-8116-0e327b90bdda}; ! Name of Object 1

