
OS:Version,
  {54a77591-f2dd-4591-932c-0ba10607d62a}, ! Handle
  0.9.3;                                  ! Version Identifier

OS:SizingPeriod:DesignDay,
  {1e4b8ca7-d32f-4088-9a4d-72b681ac01d1}, ! Handle
  Rogers  Awos Ann Clg 2% Condns DB=>MWB, ! Name
  31.7,                                   ! Maximum Dry-Bulb Temperature {C}
  9.9,                                    ! Daily Dry-Bulb Temperature Range {deltaC}
  22.7,                                   ! Humidity Indicating Conditions at Maximum Dry-Bulb {BasedOnField A3}
  96438,                                  ! Barometric Pressure {Pa}
  3.7,                                    ! Wind Speed {m/s}
  240,                                    ! Wind Direction {deg}
  0,                                      ! Sky Clearness
  0,                                      ! Rain Indicator
  0,                                      ! Snow Indicator
  21,                                     ! Day of Month
  7,                                      ! Month
  SummerDesignDay,                        ! Day Type
  0,                                      ! Daylight Saving Time Indicator
  Wetbulb,                                ! Humidity Indicating Type
  ,                                       ! Humidity Indicating Day Schedule Name
  DefaultMultipliers,                     ! Dry-Bulb Temperature Range Modifier Type
  ,                                       ! Dry-Bulb Temperature Range Modifier Schedule Name
  ASHRAETau,                              ! Solar Model Indicator
  ,                                       ! Beam Solar Day Schedule Name
  ,                                       ! Diffuse Solar Day Schedule Name
  0.453,                                  ! ASHRAE Taub {dimensionless}
  2.083;                                  ! ASHRAE Taud {dimensionless}

OS:ComponentData,
  {ebbed49b-d3ea-4055-9754-eafff7d1043b}, ! Handle
  Component Data 1,                       ! Name
  {ffbc80ba-57b6-497a-b434-a92cfd8211f9}, ! UUID
  {268d1b93-171a-4b2e-8beb-6c10bbf24a3e}, ! Version UUID
  1366306243,                             ! Creation Timestamp
  1366306243,                             ! Version Timestamp
  {1e4b8ca7-d32f-4088-9a4d-72b681ac01d1}; ! Name of Object 1

