
OS:Version,
  {240a0fdd-9e75-420b-8d38-33d1f95af22c}, ! Handle
  0.9.3;                                  ! Version Identifier

OS:SizingPeriod:DesignDay,
  {554f6bc2-eaf8-41a3-892e-cf188c4b63bf}, ! Handle
  Sumter Shaw Afb Ann Clg .4% Condns WB=>MDB, ! Name
  31.7,                                   ! Maximum Dry-Bulb Temperature {C}
  10.4,                                   ! Daily Dry-Bulb Temperature Range {deltaC}
  25.8,                                   ! Humidity Indicating Conditions at Maximum Dry-Bulb {BasedOnField A3}
  100439,                                 ! Barometric Pressure {Pa}
  3.6,                                    ! Wind Speed {m/s}
  240,                                    ! Wind Direction {deg}
  0,                                      ! Sky Clearness
  0,                                      ! Rain Indicator
  0,                                      ! Snow Indicator
  21,                                     ! Day of Month
  7,                                      ! Month
  SummerDesignDay,                        ! Day Type
  0,                                      ! Daylight Saving Time Indicator
  Wetbulb,                                ! Humidity Indicating Type
  ,                                       ! Humidity Indicating Day Schedule Name
  DefaultMultipliers,                     ! Dry-Bulb Temperature Range Modifier Type
  ,                                       ! Dry-Bulb Temperature Range Modifier Schedule Name
  ASHRAETau,                              ! Solar Model Indicator
  ,                                       ! Beam Solar Day Schedule Name
  ,                                       ! Diffuse Solar Day Schedule Name
  0.57,                                   ! ASHRAE Taub {dimensionless}
  1.751;                                  ! ASHRAE Taud {dimensionless}

OS:ComponentData,
  {95beee58-4efb-4535-8e6d-ff3eea8623cc}, ! Handle
  Component Data 1,                       ! Name
  {a4da52cd-4aa0-4087-8648-91315c488f78}, ! UUID
  {de63025b-ae26-4ca1-a075-b85135e32e88}, ! Version UUID
  1366310380,                             ! Creation Timestamp
  1366310380,                             ! Version Timestamp
  {554f6bc2-eaf8-41a3-892e-cf188c4b63bf}; ! Name of Object 1

