
OS:Version,
  {907f0c98-5838-4577-8816-97255c4d92d2}, ! Handle
  0.9.3;                                  ! Version Identifier

OS:SizingPeriod:DesignDay,
  {24817bca-16de-4d0a-95b0-0619100ebcd2}, ! Handle
  Patterson Memorial Ann Hum_n 99.6% Condns DP=>MCDB, ! Name
  12.2,                                   ! Maximum Dry-Bulb Temperature {C}
  0,                                      ! Daily Dry-Bulb Temperature Range {deltaC}
  -12.9,                                  ! Humidity Indicating Conditions at Maximum Dry-Bulb {BasedOnField A3}
  101289,                                 ! Barometric Pressure {Pa}
  2.9,                                    ! Wind Speed {m/s}
  30,                                     ! Wind Direction {deg}
  0,                                      ! Sky Clearness
  0,                                      ! Rain Indicator
  0,                                      ! Snow Indicator
  21,                                     ! Day of Month
  12,                                     ! Month
  WinterDesignDay,                        ! Day Type
  0,                                      ! Daylight Saving Time Indicator
  Dewpoint,                               ! Humidity Indicating Type
  ,                                       ! Humidity Indicating Day Schedule Name
  DefaultMultipliers,                     ! Dry-Bulb Temperature Range Modifier Type
  ,                                       ! Dry-Bulb Temperature Range Modifier Schedule Name
  ASHRAEClearSky;                         ! Solar Model Indicator

OS:ComponentData,
  {25a6bca7-d164-4876-bae4-794ce21625ba}, ! Handle
  Component Data 1,                       ! Name
  {c7c0e45b-8f74-486d-9cf7-c4280261f4b2}, ! UUID
  {54aa2916-2c19-4a46-be12-65da50dcc585}, ! Version UUID
  1366307758,                             ! Creation Timestamp
  1366307758,                             ! Version Timestamp
  {24817bca-16de-4d0a-95b0-0619100ebcd2}; ! Name of Object 1

