
OS:Version,
  {10907664-a1b7-4bd9-8dfe-89f7f7ddc37a}, ! Handle
  0.9.3;                                  ! Version Identifier

OS:SizingPeriod:DesignDay,
  {dac56cc7-2fb7-4138-b026-df3178c994d0}, ! Handle
  Portland Ann Htg Wind 99.6% Condns WS=>MCDB, ! Name
  -3.1,                                   ! Maximum Dry-Bulb Temperature {C}
  0,                                      ! Daily Dry-Bulb Temperature Range {deltaC}
  -3.1,                                   ! Humidity Indicating Conditions at Maximum Dry-Bulb {BasedOnField A3}
  101097,                                 ! Barometric Pressure {Pa}
  11.9,                                   ! Wind Speed {m/s}
  270,                                    ! Wind Direction {deg}
  0,                                      ! Sky Clearness
  0,                                      ! Rain Indicator
  0,                                      ! Snow Indicator
  21,                                     ! Day of Month
  1,                                      ! Month
  WinterDesignDay,                        ! Day Type
  0,                                      ! Daylight Saving Time Indicator
  Wetbulb,                                ! Humidity Indicating Type
  ,                                       ! Humidity Indicating Day Schedule Name
  DefaultMultipliers,                     ! Dry-Bulb Temperature Range Modifier Type
  ,                                       ! Dry-Bulb Temperature Range Modifier Schedule Name
  ASHRAEClearSky;                         ! Solar Model Indicator

OS:ComponentData,
  {892461f6-dfbf-4fd9-b5fc-7352178aef5f}, ! Handle
  Component Data 1,                       ! Name
  {cf708aeb-0338-4fe5-8311-923328b24474}, ! UUID
  {654da03b-0343-48ed-b5ee-5f5842b8123a}, ! Version UUID
  1366307910,                             ! Creation Timestamp
  1366307910,                             ! Version Timestamp
  {dac56cc7-2fb7-4138-b026-df3178c994d0}; ! Name of Object 1

