
OS:Version,
  {6320941a-337d-4e1e-a09e-d913ba3f76af}, ! Handle
  0.9.3;                                  ! Version Identifier

OS:SizingPeriod:DesignDay,
  {b21eb21f-9ca3-4310-9f53-7c3c22a5f418}, ! Handle
  Portland International Ap Ann Hum_n 99.6% Condns DP=>MCDB, ! Name
  -1.5,                                   ! Maximum Dry-Bulb Temperature {C}
  0,                                      ! Daily Dry-Bulb Temperature Range {deltaC}
  -12.7,                                  ! Humidity Indicating Conditions at Maximum Dry-Bulb {BasedOnField A3}
  101253,                                 ! Barometric Pressure {Pa}
  5.1,                                    ! Wind Speed {m/s}
  120,                                    ! Wind Direction {deg}
  0,                                      ! Sky Clearness
  0,                                      ! Rain Indicator
  0,                                      ! Snow Indicator
  21,                                     ! Day of Month
  12,                                     ! Month
  WinterDesignDay,                        ! Day Type
  0,                                      ! Daylight Saving Time Indicator
  Dewpoint,                               ! Humidity Indicating Type
  ,                                       ! Humidity Indicating Day Schedule Name
  DefaultMultipliers,                     ! Dry-Bulb Temperature Range Modifier Type
  ,                                       ! Dry-Bulb Temperature Range Modifier Schedule Name
  ASHRAEClearSky;                         ! Solar Model Indicator

OS:ComponentData,
  {f728f218-4066-4a45-83e5-a187eca5d2f4}, ! Handle
  Component Data 1,                       ! Name
  {f4f3e324-305e-4053-a8a0-360893423d7b}, ! UUID
  {14f9a4c4-484d-4241-8e87-90414c47c428}, ! Version UUID
  1366310086,                             ! Creation Timestamp
  1366310086,                             ! Version Timestamp
  {b21eb21f-9ca3-4310-9f53-7c3c22a5f418}; ! Name of Object 1

