
OS:Version,
  {258f2e35-0ad2-4cf0-886b-3cfac4b9499b}, ! Handle
  0.9.3;                                  ! Version Identifier

OS:SizingPeriod:DesignDay,
  {cd9206b6-d4e6-4698-9f72-2e62aeaecf34}, ! Handle
  Portland Intl Jetport Ann Clg 2% Condns Enth=>MDB, ! Name
  25.1,                                   ! Maximum Dry-Bulb Temperature {C}
  10,                                     ! Daily Dry-Bulb Temperature Range {deltaC}
  61500,                                  ! Humidity Indicating Conditions at Maximum Dry-Bulb {BasedOnField A3}
  101157,                                 ! Barometric Pressure {Pa}
  4.9,                                    ! Wind Speed {m/s}
  260,                                    ! Wind Direction {deg}
  0,                                      ! Sky Clearness
  0,                                      ! Rain Indicator
  0,                                      ! Snow Indicator
  21,                                     ! Day of Month
  7,                                      ! Month
  SummerDesignDay,                        ! Day Type
  0,                                      ! Daylight Saving Time Indicator
  Enthalpy,                               ! Humidity Indicating Type
  ,                                       ! Humidity Indicating Day Schedule Name
  DefaultMultipliers,                     ! Dry-Bulb Temperature Range Modifier Type
  ,                                       ! Dry-Bulb Temperature Range Modifier Schedule Name
  ASHRAETau,                              ! Solar Model Indicator
  ,                                       ! Beam Solar Day Schedule Name
  ,                                       ! Diffuse Solar Day Schedule Name
  0.477,                                  ! ASHRAE Taub {dimensionless}
  1.97;                                   ! ASHRAE Taud {dimensionless}

OS:ComponentData,
  {0f74b2cd-a153-46c5-8da9-e04a4c5ebd30}, ! Handle
  Component Data 1,                       ! Name
  {1aa1f940-19ed-41ff-b9e3-0cc207ad4c77}, ! UUID
  {32e0d45e-5ec4-497d-81b0-78931eb16a4c}, ! Version UUID
  1366307916,                             ! Creation Timestamp
  1366307916,                             ! Version Timestamp
  {cd9206b6-d4e6-4698-9f72-2e62aeaecf34}; ! Name of Object 1

