
OS:Version,
  {57145950-fee9-4cee-b3bb-68b4f81887cd}, ! Handle
  0.9.3;                                  ! Version Identifier

OS:SizingPeriod:DesignDay,
  {d4029559-86a4-42ce-a240-5432541ec5c7}, ! Handle
  Truckee Tahoe Ann Clg 2% Condns WB=>MDB, ! Name
  25.7,                                   ! Maximum Dry-Bulb Temperature {C}
  22.7,                                   ! Daily Dry-Bulb Temperature Range {deltaC}
  14.8,                                   ! Humidity Indicating Conditions at Maximum Dry-Bulb {BasedOnField A3}
  81509,                                  ! Barometric Pressure {Pa}
  4.3,                                    ! Wind Speed {m/s}
  230,                                    ! Wind Direction {deg}
  0,                                      ! Sky Clearness
  0,                                      ! Rain Indicator
  0,                                      ! Snow Indicator
  21,                                     ! Day of Month
  7,                                      ! Month
  SummerDesignDay,                        ! Day Type
  0,                                      ! Daylight Saving Time Indicator
  Wetbulb,                                ! Humidity Indicating Type
  ,                                       ! Humidity Indicating Day Schedule Name
  DefaultMultipliers,                     ! Dry-Bulb Temperature Range Modifier Type
  ,                                       ! Dry-Bulb Temperature Range Modifier Schedule Name
  ASHRAETau,                              ! Solar Model Indicator
  ,                                       ! Beam Solar Day Schedule Name
  ,                                       ! Diffuse Solar Day Schedule Name
  0.344,                                  ! ASHRAE Taub {dimensionless}
  2.382;                                  ! ASHRAE Taud {dimensionless}

OS:ComponentData,
  {67a858f0-634d-4956-82fb-e5dffa90d28b}, ! Handle
  Component Data 1,                       ! Name
  {0b9c5a33-d356-4516-ba20-6a3a1311581a}, ! UUID
  {b4b32326-3809-449d-85ee-de6898f02a61}, ! Version UUID
  1366306625,                             ! Creation Timestamp
  1366306625,                             ! Version Timestamp
  {d4029559-86a4-42ce-a240-5432541ec5c7}; ! Name of Object 1

