
OS:Version,
  {da6466d8-408e-4fa7-be83-7ba80f6fc8c9}, ! Handle
  0.9.3;                                  ! Version Identifier

OS:SizingPeriod:DesignDay,
  {9c0aae80-85fc-41b9-83c0-f9af051d1fe4}, ! Handle
  Watertown Municipal Ap Ann Htg 99.6% Condns DB, ! Name
  -27.2,                                  ! Maximum Dry-Bulb Temperature {C}
  0,                                      ! Daily Dry-Bulb Temperature Range {deltaC}
  -27.2,                                  ! Humidity Indicating Conditions at Maximum Dry-Bulb {BasedOnField A3}
  95095,                                  ! Barometric Pressure {Pa}
  3.7,                                    ! Wind Speed {m/s}
  320,                                    ! Wind Direction {deg}
  0,                                      ! Sky Clearness
  0,                                      ! Rain Indicator
  0,                                      ! Snow Indicator
  21,                                     ! Day of Month
  1,                                      ! Month
  WinterDesignDay,                        ! Day Type
  0,                                      ! Daylight Saving Time Indicator
  Wetbulb,                                ! Humidity Indicating Type
  ,                                       ! Humidity Indicating Day Schedule Name
  DefaultMultipliers,                     ! Dry-Bulb Temperature Range Modifier Type
  ,                                       ! Dry-Bulb Temperature Range Modifier Schedule Name
  ASHRAEClearSky;                         ! Solar Model Indicator

OS:ComponentData,
  {8812fe4c-4b60-4ab9-a5c6-308989456ac2}, ! Handle
  Component Data 1,                       ! Name
  {c5df135c-bd9e-49d9-982b-7adc89e75112}, ! UUID
  {99dbd9b6-ad82-4d13-aeff-a9e6e340c67f}, ! Version UUID
  1366310467,                             ! Creation Timestamp
  1366310467,                             ! Version Timestamp
  {9c0aae80-85fc-41b9-83c0-f9af051d1fe4}; ! Name of Object 1

