
OS:Version,
  {64e8e2b8-223f-403f-8ec9-a3490abde0ee}, ! Handle
  0.9.3;                                  ! Version Identifier

OS:SizingPeriod:DesignDay,
  {27089506-caab-4bc0-a8a2-dfb0d26d8f5e}, ! Handle
  Worland Municipal Ann Clg 2% Condns DB=>MWB, ! Name
  32.2,                                   ! Maximum Dry-Bulb Temperature {C}
  17.8,                                   ! Daily Dry-Bulb Temperature Range {deltaC}
  16.5,                                   ! Humidity Indicating Conditions at Maximum Dry-Bulb {BasedOnField A3}
  86715,                                  ! Barometric Pressure {Pa}
  3.7,                                    ! Wind Speed {m/s}
  180,                                    ! Wind Direction {deg}
  0,                                      ! Sky Clearness
  0,                                      ! Rain Indicator
  0,                                      ! Snow Indicator
  21,                                     ! Day of Month
  7,                                      ! Month
  SummerDesignDay,                        ! Day Type
  0,                                      ! Daylight Saving Time Indicator
  Wetbulb,                                ! Humidity Indicating Type
  ,                                       ! Humidity Indicating Day Schedule Name
  DefaultMultipliers,                     ! Dry-Bulb Temperature Range Modifier Type
  ,                                       ! Dry-Bulb Temperature Range Modifier Schedule Name
  ASHRAETau,                              ! Solar Model Indicator
  ,                                       ! Beam Solar Day Schedule Name
  ,                                       ! Diffuse Solar Day Schedule Name
  0.43,                                   ! ASHRAE Taub {dimensionless}
  1.973;                                  ! ASHRAE Taud {dimensionless}

OS:ComponentData,
  {d370f433-d99f-498c-afe2-aeaa2dab89b7}, ! Handle
  Component Data 1,                       ! Name
  {5f28aeab-56ed-43eb-9c6b-176ee4db3e20}, ! UUID
  {ac17e39d-3b6e-47e3-b901-a9b86b863655}, ! Version UUID
  1366311792,                             ! Creation Timestamp
  1366311792,                             ! Version Timestamp
  {27089506-caab-4bc0-a8a2-dfb0d26d8f5e}; ! Name of Object 1

