
OS:Version,
  {b6a3c598-b1fa-43e8-ae4e-1132e8b2d133}, ! Handle
  0.9.3;                                  ! Version Identifier

OS:SizingPeriod:DesignDay,
  {c396d1f6-b8b7-496e-b6cf-ae26d37a14bf}, ! Handle
  SYRACUSE Ann Clg 2% Condns Enth=>MDB,   ! Name
  26.8,                                   ! Maximum Dry-Bulb Temperature {C}
  10.8,                                   ! Daily Dry-Bulb Temperature Range {deltaC}
  65900,                                  ! Humidity Indicating Conditions at Maximum Dry-Bulb {BasedOnField A3}
  99844,                                  ! Barometric Pressure {Pa}
  4.4,                                    ! Wind Speed {m/s}
  260,                                    ! Wind Direction {deg}
  0,                                      ! Sky Clearness
  0,                                      ! Rain Indicator
  0,                                      ! Snow Indicator
  21,                                     ! Day of Month
  7,                                      ! Month
  SummerDesignDay,                        ! Day Type
  0,                                      ! Daylight Saving Time Indicator
  Enthalpy,                               ! Humidity Indicating Type
  ,                                       ! Humidity Indicating Day Schedule Name
  DefaultMultipliers,                     ! Dry-Bulb Temperature Range Modifier Type
  ,                                       ! Dry-Bulb Temperature Range Modifier Schedule Name
  ASHRAETau,                              ! Solar Model Indicator
  ,                                       ! Beam Solar Day Schedule Name
  ,                                       ! Diffuse Solar Day Schedule Name
  0.47,                                   ! ASHRAE Taub {dimensionless}
  1.975;                                  ! ASHRAE Taud {dimensionless}

OS:ComponentData,
  {581930b6-88ff-4d50-8454-507e230b5734}, ! Handle
  Component Data 1,                       ! Name
  {7f69b368-7fe4-40ff-a6ba-07edfcf4825b}, ! UUID
  {11ade81b-514d-4230-b534-1baf3b10017b}, ! Version UUID
  1366309741,                             ! Creation Timestamp
  1366309741,                             ! Version Timestamp
  {c396d1f6-b8b7-496e-b6cf-ae26d37a14bf}; ! Name of Object 1

