
OS:Version,
  {9ea9d768-d381-4b1e-bad1-90e74da48cba}, ! Handle
  0.9.3;                                  ! Version Identifier

OS:SizingPeriod:DesignDay,
  {56b2575c-85b8-4601-aeab-e71dc05469ca}, ! Handle
  SAULT_STE. Ann Clg .4% Condns Enth=>MDB, ! Name
  26.9,                                   ! Maximum Dry-Bulb Temperature {C}
  11.7,                                   ! Daily Dry-Bulb Temperature Range {deltaC}
  67100,                                  ! Humidity Indicating Conditions at Maximum Dry-Bulb {BasedOnField A3}
  98698,                                  ! Barometric Pressure {Pa}
  4.2,                                    ! Wind Speed {m/s}
  220,                                    ! Wind Direction {deg}
  0,                                      ! Sky Clearness
  0,                                      ! Rain Indicator
  0,                                      ! Snow Indicator
  21,                                     ! Day of Month
  7,                                      ! Month
  SummerDesignDay,                        ! Day Type
  0,                                      ! Daylight Saving Time Indicator
  Enthalpy,                               ! Humidity Indicating Type
  ,                                       ! Humidity Indicating Day Schedule Name
  DefaultMultipliers,                     ! Dry-Bulb Temperature Range Modifier Type
  ,                                       ! Dry-Bulb Temperature Range Modifier Schedule Name
  ASHRAETau,                              ! Solar Model Indicator
  ,                                       ! Beam Solar Day Schedule Name
  ,                                       ! Diffuse Solar Day Schedule Name
  0.412,                                  ! ASHRAE Taub {dimensionless}
  2.194;                                  ! ASHRAE Taud {dimensionless}

OS:ComponentData,
  {bdb75b56-8289-48c2-b603-f47bfd382cd0}, ! Handle
  Component Data 1,                       ! Name
  {4f364f1e-96b1-497f-b4e1-a246fe7c67c4}, ! UUID
  {1a9d2ea9-855f-485e-ba9f-64692a949498}, ! Version UUID
  1366308111,                             ! Creation Timestamp
  1366308111,                             ! Version Timestamp
  {56b2575c-85b8-4601-aeab-e71dc05469ca}; ! Name of Object 1

