
OS:Version,
  {f362aec8-5141-4c45-bac3-23ef07fba76f}, ! Handle
  0.9.3;                                  ! Version Identifier

OS:SizingPeriod:DesignDay,
  {58e7a62b-48ce-4e90-894e-5574293cedc9}, ! Handle
  SAULT_STE. Ann Clg 2% Condns DB=>MWB,   ! Name
  25.2,                                   ! Maximum Dry-Bulb Temperature {C}
  11.7,                                   ! Daily Dry-Bulb Temperature Range {deltaC}
  19,                                     ! Humidity Indicating Conditions at Maximum Dry-Bulb {BasedOnField A3}
  98698,                                  ! Barometric Pressure {Pa}
  4.2,                                    ! Wind Speed {m/s}
  220,                                    ! Wind Direction {deg}
  0,                                      ! Sky Clearness
  0,                                      ! Rain Indicator
  0,                                      ! Snow Indicator
  21,                                     ! Day of Month
  7,                                      ! Month
  SummerDesignDay,                        ! Day Type
  0,                                      ! Daylight Saving Time Indicator
  Wetbulb,                                ! Humidity Indicating Type
  ,                                       ! Humidity Indicating Day Schedule Name
  DefaultMultipliers,                     ! Dry-Bulb Temperature Range Modifier Type
  ,                                       ! Dry-Bulb Temperature Range Modifier Schedule Name
  ASHRAETau,                              ! Solar Model Indicator
  ,                                       ! Beam Solar Day Schedule Name
  ,                                       ! Diffuse Solar Day Schedule Name
  0.412,                                  ! ASHRAE Taub {dimensionless}
  2.194;                                  ! ASHRAE Taud {dimensionless}

OS:ComponentData,
  {49895b80-ecb9-407d-a97e-3792079c22fc}, ! Handle
  Component Data 1,                       ! Name
  {904e542b-1a46-41b2-a88d-1d0687a2292c}, ! UUID
  {6500fe06-cdbc-41ed-85a3-975643faeb6c}, ! Version UUID
  1366308110,                             ! Creation Timestamp
  1366308110,                             ! Version Timestamp
  {58e7a62b-48ce-4e90-894e-5574293cedc9}; ! Name of Object 1

