
OS:Version,
  {0e482b83-8ea1-4d2c-bbf4-2d1928aa61c8}, ! Handle
  0.9.3;                                  ! Version Identifier

OS:SizingPeriod:DesignDay,
  {7760394b-f9cf-46d6-8c40-427d77e005a1}, ! Handle
  W  Chicago Du Page Ann Clg .4% Condns Enth=>MDB, ! Name
  30.7,                                   ! Maximum Dry-Bulb Temperature {C}
  11,                                     ! Daily Dry-Bulb Temperature Range {deltaC}
  80600,                                  ! Humidity Indicating Conditions at Maximum Dry-Bulb {BasedOnField A3}
  98581,                                  ! Barometric Pressure {Pa}
  5.1,                                    ! Wind Speed {m/s}
  240,                                    ! Wind Direction {deg}
  0,                                      ! Sky Clearness
  0,                                      ! Rain Indicator
  0,                                      ! Snow Indicator
  21,                                     ! Day of Month
  7,                                      ! Month
  SummerDesignDay,                        ! Day Type
  0,                                      ! Daylight Saving Time Indicator
  Enthalpy,                               ! Humidity Indicating Type
  ,                                       ! Humidity Indicating Day Schedule Name
  DefaultMultipliers,                     ! Dry-Bulb Temperature Range Modifier Type
  ,                                       ! Dry-Bulb Temperature Range Modifier Schedule Name
  ASHRAETau,                              ! Solar Model Indicator
  ,                                       ! Beam Solar Day Schedule Name
  ,                                       ! Diffuse Solar Day Schedule Name
  0.449,                                  ! ASHRAE Taub {dimensionless}
  2.068;                                  ! ASHRAE Taud {dimensionless}

OS:ComponentData,
  {ba9dc930-2c74-46f0-9275-2137de29203f}, ! Handle
  Component Data 1,                       ! Name
  {0d4047ef-8af1-4836-baf0-fb416a93c106}, ! UUID
  {cd480994-1a9a-421a-8850-45efdc1eeb78}, ! Version UUID
  1366307360,                             ! Creation Timestamp
  1366307360,                             ! Version Timestamp
  {7760394b-f9cf-46d6-8c40-427d77e005a1}; ! Name of Object 1

