
OS:Version,
  {8cc46ca9-f106-47d1-a942-3aa4a6296fc1}, ! Handle
  0.9.3;                                  ! Version Identifier

OS:SizingPeriod:DesignDay,
  {9720a02f-45e4-4f3d-baf0-e3f5c7df7224}, ! Handle
  Moline/Davenport IA Ann Clg 2% Condns Enth=>MDB, ! Name
  29.2,                                   ! Maximum Dry-Bulb Temperature {C}
  11.1,                                   ! Daily Dry-Bulb Temperature Range {deltaC}
  74300,                                  ! Humidity Indicating Conditions at Maximum Dry-Bulb {BasedOnField A3}
  99169,                                  ! Barometric Pressure {Pa}
  4.9,                                    ! Wind Speed {m/s}
  210,                                    ! Wind Direction {deg}
  0,                                      ! Sky Clearness
  0,                                      ! Rain Indicator
  0,                                      ! Snow Indicator
  21,                                     ! Day of Month
  7,                                      ! Month
  SummerDesignDay,                        ! Day Type
  0,                                      ! Daylight Saving Time Indicator
  Enthalpy,                               ! Humidity Indicating Type
  ,                                       ! Humidity Indicating Day Schedule Name
  DefaultMultipliers,                     ! Dry-Bulb Temperature Range Modifier Type
  ,                                       ! Dry-Bulb Temperature Range Modifier Schedule Name
  ASHRAETau,                              ! Solar Model Indicator
  ,                                       ! Beam Solar Day Schedule Name
  ,                                       ! Diffuse Solar Day Schedule Name
  0.449,                                  ! ASHRAE Taub {dimensionless}
  2.068;                                  ! ASHRAE Taud {dimensionless}

OS:ComponentData,
  {5eb7c3e2-f41c-43e7-828f-6f52ae0d406a}, ! Handle
  Component Data 1,                       ! Name
  {7176e047-c3db-488a-9c2d-ab3027e6abcc}, ! UUID
  {cb810def-3d90-4e7f-af29-97349713d6c6}, ! Version UUID
  1366307365,                             ! Creation Timestamp
  1366307365,                             ! Version Timestamp
  {9720a02f-45e4-4f3d-baf0-e3f5c7df7224}; ! Name of Object 1

