
OS:Version,
  {ccc03ddb-e03e-436f-8e15-8b429259c02c}, ! Handle
  0.9.3;                                  ! Version Identifier

OS:SizingPeriod:DesignDay,
  {7529e6c0-e66d-4f6e-84e5-e7e015dafcb0}, ! Handle
  Yakima Ann Htg 99.6% Condns DB,         ! Name
  -14.3,                                  ! Maximum Dry-Bulb Temperature {C}
  0,                                      ! Daily Dry-Bulb Temperature Range {deltaC}
  -14.3,                                  ! Humidity Indicating Conditions at Maximum Dry-Bulb {BasedOnField A3}
  97481,                                  ! Barometric Pressure {Pa}
  2.4,                                    ! Wind Speed {m/s}
  280,                                    ! Wind Direction {deg}
  0,                                      ! Sky Clearness
  0,                                      ! Rain Indicator
  0,                                      ! Snow Indicator
  21,                                     ! Day of Month
  12,                                     ! Month
  WinterDesignDay,                        ! Day Type
  0,                                      ! Daylight Saving Time Indicator
  Wetbulb,                                ! Humidity Indicating Type
  ,                                       ! Humidity Indicating Day Schedule Name
  DefaultMultipliers,                     ! Dry-Bulb Temperature Range Modifier Type
  ,                                       ! Dry-Bulb Temperature Range Modifier Schedule Name
  ASHRAEClearSky;                         ! Solar Model Indicator

OS:ComponentData,
  {b97f45b1-d3fa-494f-b2ea-a608a319d696}, ! Handle
  Component Data 1,                       ! Name
  {e2d3952a-b526-42ad-895f-38f03bbb6bc5}, ! UUID
  {1bd3b81c-0a01-4d83-831f-9cf90ef6377c}, ! Version UUID
  1366311446,                             ! Creation Timestamp
  1366311446,                             ! Version Timestamp
  {7529e6c0-e66d-4f6e-84e5-e7e015dafcb0}; ! Name of Object 1

