
OS:Version,
  {74bc2b92-07eb-43f3-94c3-d3c253573f33}, ! Handle
  0.9.3;                                  ! Version Identifier

OS:SizingPeriod:DesignDay,
  {9efa047d-d363-4273-822b-8ded42ae565f}, ! Handle
  SAN_ANTONIO Ann Clg 1% Condns DB=>MWB,  ! Name
  36.3,                                   ! Maximum Dry-Bulb Temperature {C}
  12.5,                                   ! Daily Dry-Bulb Temperature Range {deltaC}
  23.3,                                   ! Humidity Indicating Conditions at Maximum Dry-Bulb {BasedOnField A3}
  98451,                                  ! Barometric Pressure {Pa}
  4.7,                                    ! Wind Speed {m/s}
  160,                                    ! Wind Direction {deg}
  0,                                      ! Sky Clearness
  0,                                      ! Rain Indicator
  0,                                      ! Snow Indicator
  21,                                     ! Day of Month
  8,                                      ! Month
  SummerDesignDay,                        ! Day Type
  0,                                      ! Daylight Saving Time Indicator
  Wetbulb,                                ! Humidity Indicating Type
  ,                                       ! Humidity Indicating Day Schedule Name
  DefaultMultipliers,                     ! Dry-Bulb Temperature Range Modifier Type
  ,                                       ! Dry-Bulb Temperature Range Modifier Schedule Name
  ASHRAETau,                              ! Solar Model Indicator
  ,                                       ! Beam Solar Day Schedule Name
  ,                                       ! Diffuse Solar Day Schedule Name
  0.45,                                   ! ASHRAE Taub {dimensionless}
  2.14;                                   ! ASHRAE Taud {dimensionless}

OS:ComponentData,
  {97c3dfd8-f6e1-4f73-8371-6a1d177fa114}, ! Handle
  Component Data 1,                       ! Name
  {f208792f-dd13-4cde-b6cf-37d6b16f9c24}, ! UUID
  {c9383793-bfe7-405b-8958-19077dc0e6e1}, ! Version UUID
  1366310890,                             ! Creation Timestamp
  1366310890,                             ! Version Timestamp
  {9efa047d-d363-4273-822b-8ded42ae565f}; ! Name of Object 1

