
OS:Version,
  {fd5f0e11-3d39-40f9-a877-fb635a95ae01}, ! Handle
  0.9.3;                                  ! Version Identifier

OS:SizingPeriod:DesignDay,
  {eac96eb3-02bb-4f24-b12a-db78f37076ad}, ! Handle
  Waco Ann Hum_n 99.6% Condns DP=>MCDB,   ! Name
  -1.8,                                   ! Maximum Dry-Bulb Temperature {C}
  0,                                      ! Daily Dry-Bulb Temperature Range {deltaC}
  -11.9,                                  ! Humidity Indicating Conditions at Maximum Dry-Bulb {BasedOnField A3}
  99477,                                  ! Barometric Pressure {Pa}
  5.1,                                    ! Wind Speed {m/s}
  0,                                      ! Wind Direction {deg}
  0,                                      ! Sky Clearness
  0,                                      ! Rain Indicator
  0,                                      ! Snow Indicator
  21,                                     ! Day of Month
  1,                                      ! Month
  WinterDesignDay,                        ! Day Type
  0,                                      ! Daylight Saving Time Indicator
  Dewpoint,                               ! Humidity Indicating Type
  ,                                       ! Humidity Indicating Day Schedule Name
  DefaultMultipliers,                     ! Dry-Bulb Temperature Range Modifier Type
  ,                                       ! Dry-Bulb Temperature Range Modifier Schedule Name
  ASHRAEClearSky;                         ! Solar Model Indicator

OS:ComponentData,
  {97fc7f90-5a9e-47f8-9099-f36a055a43a9}, ! Handle
  Component Data 1,                       ! Name
  {ab96758b-b57b-4d1d-914f-d0d8f0dc61e8}, ! UUID
  {0e0d30be-8872-41b3-b235-657c4ae7cc13}, ! Version UUID
  1366310919,                             ! Creation Timestamp
  1366310919,                             ! Version Timestamp
  {eac96eb3-02bb-4f24-b12a-db78f37076ad}; ! Name of Object 1

