
OS:Version,
  {a6ecba11-465a-47dc-9b54-3a85fb8966f1}, ! Handle
  0.9.3;                                  ! Version Identifier

OS:SizingPeriod:DesignDay,
  {ea0df5c1-d169-4086-a247-fcea6794e22c}, ! Handle
  Youngstown Regional Airport Ann Htg Wind 99% Condns WS=>MCDB, ! Name
  -5.3,                                   ! Maximum Dry-Bulb Temperature {C}
  0,                                      ! Daily Dry-Bulb Temperature Range {deltaC}
  -5.3,                                   ! Humidity Indicating Conditions at Maximum Dry-Bulb {BasedOnField A3}
  97074,                                  ! Barometric Pressure {Pa}
  10.9,                                   ! Wind Speed {m/s}
  260,                                    ! Wind Direction {deg}
  0,                                      ! Sky Clearness
  0,                                      ! Rain Indicator
  0,                                      ! Snow Indicator
  21,                                     ! Day of Month
  1,                                      ! Month
  WinterDesignDay,                        ! Day Type
  0,                                      ! Daylight Saving Time Indicator
  Wetbulb,                                ! Humidity Indicating Type
  ,                                       ! Humidity Indicating Day Schedule Name
  DefaultMultipliers,                     ! Dry-Bulb Temperature Range Modifier Type
  ,                                       ! Dry-Bulb Temperature Range Modifier Schedule Name
  ASHRAEClearSky;                         ! Solar Model Indicator

OS:ComponentData,
  {584b3a4a-05a8-4a0f-8dc1-4f795fcfe2b4}, ! Handle
  Component Data 1,                       ! Name
  {cf005d34-9bbe-4452-b906-71eb0cb7401b}, ! UUID
  {82c9ad6c-e15e-460d-b8e8-8c644dbc88c0}, ! Version UUID
  1366309868,                             ! Creation Timestamp
  1366309868,                             ! Version Timestamp
  {ea0df5c1-d169-4086-a247-fcea6794e22c}; ! Name of Object 1

