
OS:Version,
  {7842855e-8a86-4b43-a889-a40a1b4a9197}, ! Handle
  0.9.3;                                  ! Version Identifier

OS:SizingPeriod:DesignDay,
  {48270dfd-b178-4eeb-9d29-5be98b00f31a}, ! Handle
  Ponca City Municipal Ap  Sgp Ann Clg 1% Condns Enth=>MDB, ! Name
  32.9,                                   ! Maximum Dry-Bulb Temperature {C}
  11.4,                                   ! Daily Dry-Bulb Temperature Range {deltaC}
  79900,                                  ! Humidity Indicating Conditions at Maximum Dry-Bulb {BasedOnField A3}
  97563,                                  ! Barometric Pressure {Pa}
  5.2,                                    ! Wind Speed {m/s}
  170,                                    ! Wind Direction {deg}
  0,                                      ! Sky Clearness
  0,                                      ! Rain Indicator
  0,                                      ! Snow Indicator
  21,                                     ! Day of Month
  7,                                      ! Month
  SummerDesignDay,                        ! Day Type
  0,                                      ! Daylight Saving Time Indicator
  Enthalpy,                               ! Humidity Indicating Type
  ,                                       ! Humidity Indicating Day Schedule Name
  DefaultMultipliers,                     ! Dry-Bulb Temperature Range Modifier Type
  ,                                       ! Dry-Bulb Temperature Range Modifier Schedule Name
  ASHRAETau,                              ! Solar Model Indicator
  ,                                       ! Beam Solar Day Schedule Name
  ,                                       ! Diffuse Solar Day Schedule Name
  0.432,                                  ! ASHRAE Taub {dimensionless}
  2.176;                                  ! ASHRAE Taud {dimensionless}

OS:ComponentData,
  {9fa746d8-d3b2-4bee-85b7-48507896e2aa}, ! Handle
  Component Data 1,                       ! Name
  {32353723-9e93-47bf-a4ee-e1d090009b94}, ! UUID
  {cc0f58ba-4d57-4c4a-9e73-8170e34fc070}, ! Version UUID
  1366309942,                             ! Creation Timestamp
  1366309942,                             ! Version Timestamp
  {48270dfd-b178-4eeb-9d29-5be98b00f31a}; ! Name of Object 1

