
OS:Version,
  {d29bcfe0-7835-41a8-915b-2b544b41ff2e}, ! Handle
  0.9.3;                                  ! Version Identifier

OS:SizingPeriod:DesignDay,
  {72e7a64f-650f-4e42-a60a-a6f470c12856}, ! Handle
  Whiteman Afb Ann Htg Wind 99% Condns WS=>MCDB, ! Name
  1.4,                                    ! Maximum Dry-Bulb Temperature {C}
  0,                                      ! Daily Dry-Bulb Temperature Range {deltaC}
  1.4,                                    ! Humidity Indicating Conditions at Maximum Dry-Bulb {BasedOnField A3}
  98299,                                  ! Barometric Pressure {Pa}
  11.1,                                   ! Wind Speed {m/s}
  350,                                    ! Wind Direction {deg}
  0,                                      ! Sky Clearness
  0,                                      ! Rain Indicator
  0,                                      ! Snow Indicator
  21,                                     ! Day of Month
  1,                                      ! Month
  WinterDesignDay,                        ! Day Type
  0,                                      ! Daylight Saving Time Indicator
  Wetbulb,                                ! Humidity Indicating Type
  ,                                       ! Humidity Indicating Day Schedule Name
  DefaultMultipliers,                     ! Dry-Bulb Temperature Range Modifier Type
  ,                                       ! Dry-Bulb Temperature Range Modifier Schedule Name
  ASHRAEClearSky;                         ! Solar Model Indicator

OS:ComponentData,
  {05229aa8-5963-4868-9486-c0c649939e5e}, ! Handle
  Component Data 1,                       ! Name
  {46f8b5f7-795f-4597-8be9-17965969e099}, ! UUID
  {f73e28d2-e637-4d15-b4f6-1b6256e15cc5}, ! Version UUID
  1366308600,                             ! Creation Timestamp
  1366308600,                             ! Version Timestamp
  {72e7a64f-650f-4e42-a60a-a6f470c12856}; ! Name of Object 1

