
OS:Version,
  {f6ba694c-d4f9-4700-aab8-9b669fdfd533}, ! Handle
  0.9.3;                                  ! Version Identifier

OS:SizingPeriod:DesignDay,
  {443ca4b9-cd2c-44e2-97b0-27baade69ded}, ! Handle
  Springfield Ann Clg 2% Condns DB=>MWB,  ! Name
  31.9,                                   ! Maximum Dry-Bulb Temperature {C}
  11,                                     ! Daily Dry-Bulb Temperature Range {deltaC}
  23.4,                                   ! Humidity Indicating Conditions at Maximum Dry-Bulb {BasedOnField A3}
  96761,                                  ! Barometric Pressure {Pa}
  3.9,                                    ! Wind Speed {m/s}
  180,                                    ! Wind Direction {deg}
  0,                                      ! Sky Clearness
  0,                                      ! Rain Indicator
  0,                                      ! Snow Indicator
  21,                                     ! Day of Month
  7,                                      ! Month
  SummerDesignDay,                        ! Day Type
  0,                                      ! Daylight Saving Time Indicator
  Wetbulb,                                ! Humidity Indicating Type
  ,                                       ! Humidity Indicating Day Schedule Name
  DefaultMultipliers,                     ! Dry-Bulb Temperature Range Modifier Type
  ,                                       ! Dry-Bulb Temperature Range Modifier Schedule Name
  ASHRAETau,                              ! Solar Model Indicator
  ,                                       ! Beam Solar Day Schedule Name
  ,                                       ! Diffuse Solar Day Schedule Name
  0.448,                                  ! ASHRAE Taub {dimensionless}
  2.097;                                  ! ASHRAE Taud {dimensionless}

OS:ComponentData,
  {77ff59b6-78bb-4032-bed6-56f5a92f4a8e}, ! Handle
  Component Data 1,                       ! Name
  {c99bafcf-d87f-48d5-b28a-d942831909da}, ! UUID
  {63c34433-ae25-4bab-b2be-c73474f9a486}, ! Version UUID
  1366308565,                             ! Creation Timestamp
  1366308565,                             ! Version Timestamp
  {443ca4b9-cd2c-44e2-97b0-27baade69ded}; ! Name of Object 1

