
OS:Version,
  {4db26fdc-a3d4-4817-a2d4-fea7634c3c45}, ! Handle
  0.9.3;                                  ! Version Identifier

OS:SizingPeriod:DesignDay,
  {7f20c0f0-38e6-4f4d-86f5-bc85f79e2d52}, ! Handle
  William R Fairchild Ann Clg 1% Condns WB=>MDB, ! Name
  21.7,                                   ! Maximum Dry-Bulb Temperature {C}
  9.1,                                    ! Daily Dry-Bulb Temperature Range {deltaC}
  16.6,                                   ! Humidity Indicating Conditions at Maximum Dry-Bulb {BasedOnField A3}
  100237,                                 ! Barometric Pressure {Pa}
  2.1,                                    ! Wind Speed {m/s}
  90,                                     ! Wind Direction {deg}
  0,                                      ! Sky Clearness
  0,                                      ! Rain Indicator
  0,                                      ! Snow Indicator
  21,                                     ! Day of Month
  8,                                      ! Month
  SummerDesignDay,                        ! Day Type
  0,                                      ! Daylight Saving Time Indicator
  Wetbulb,                                ! Humidity Indicating Type
  ,                                       ! Humidity Indicating Day Schedule Name
  DefaultMultipliers,                     ! Dry-Bulb Temperature Range Modifier Type
  ,                                       ! Dry-Bulb Temperature Range Modifier Schedule Name
  ASHRAETau,                              ! Solar Model Indicator
  ,                                       ! Beam Solar Day Schedule Name
  ,                                       ! Diffuse Solar Day Schedule Name
  0.364,                                  ! ASHRAE Taub {dimensionless}
  2.489;                                  ! ASHRAE Taud {dimensionless}

OS:ComponentData,
  {530eae59-4f8d-4233-b3c2-efd9bfe218c8}, ! Handle
  Component Data 1,                       ! Name
  {d298ed83-71b1-4bb3-a4a8-e3f62481dea1}, ! UUID
  {8c70b005-76c4-4d89-8177-d5a28a8a1ca6}, ! Version UUID
  1366311325,                             ! Creation Timestamp
  1366311325,                             ! Version Timestamp
  {7f20c0f0-38e6-4f4d-86f5-bc85f79e2d52}; ! Name of Object 1

