
OS:Version,
  {3d335f0d-a4dc-40a1-8355-787e6b0b5df4}, ! Handle
  0.9.3;                                  ! Version Identifier

OS:SizingPeriod:DesignDay,
  {90843ac1-e6b6-4691-9fd9-11dde889ab57}, ! Handle
  Paducah Barkley Regional Ap Ann Clg 1% Condns Enth=>MDB, ! Name
  31.8,                                   ! Maximum Dry-Bulb Temperature {C}
  10.8,                                   ! Daily Dry-Bulb Temperature Range {deltaC}
  80800,                                  ! Humidity Indicating Conditions at Maximum Dry-Bulb {BasedOnField A3}
  99844,                                  ! Barometric Pressure {Pa}
  3.6,                                    ! Wind Speed {m/s}
  180,                                    ! Wind Direction {deg}
  0,                                      ! Sky Clearness
  0,                                      ! Rain Indicator
  0,                                      ! Snow Indicator
  21,                                     ! Day of Month
  7,                                      ! Month
  SummerDesignDay,                        ! Day Type
  0,                                      ! Daylight Saving Time Indicator
  Enthalpy,                               ! Humidity Indicating Type
  ,                                       ! Humidity Indicating Day Schedule Name
  DefaultMultipliers,                     ! Dry-Bulb Temperature Range Modifier Type
  ,                                       ! Dry-Bulb Temperature Range Modifier Schedule Name
  ASHRAETau,                              ! Solar Model Indicator
  ,                                       ! Beam Solar Day Schedule Name
  ,                                       ! Diffuse Solar Day Schedule Name
  0.495,                                  ! ASHRAE Taub {dimensionless}
  1.94;                                   ! ASHRAE Taud {dimensionless}

