
OS:Version,
  {f2bd1309-599e-4ff0-81ab-78adc6a269e1}, ! Handle
  0.9.3;                                  ! Version Identifier

OS:SizingPeriod:DesignDay,
  {ad8654f8-0da4-49bb-8074-9788e1ad18f3}, ! Handle
  Port Heiden Ann Htg 99.6% Condns DB,    ! Name
  -22.2,                                  ! Maximum Dry-Bulb Temperature {C}
  0,                                      ! Daily Dry-Bulb Temperature Range {deltaC}
  -22.2,                                  ! Humidity Indicating Conditions at Maximum Dry-Bulb {BasedOnField A3}
  100977,                                 ! Barometric Pressure {Pa}
  6.8,                                    ! Wind Speed {m/s}
  40,                                     ! Wind Direction {deg}
  0,                                      ! Sky Clearness
  0,                                      ! Rain Indicator
  0,                                      ! Snow Indicator
  21,                                     ! Day of Month
  2,                                      ! Month
  WinterDesignDay,                        ! Day Type
  0,                                      ! Daylight Saving Time Indicator
  Wetbulb,                                ! Humidity Indicating Type
  ,                                       ! Humidity Indicating Day Schedule Name
  DefaultMultipliers,                     ! Dry-Bulb Temperature Range Modifier Type
  ,                                       ! Dry-Bulb Temperature Range Modifier Schedule Name
  ASHRAEClearSky;                         ! Solar Model Indicator

OS:ComponentData,
  {6e53a9ef-2b14-4066-b1a4-4f8e6074dd55}, ! Handle
  Component Data 1,                       ! Name
  {76a26c25-2824-4d7b-a862-f7f94666b5dc}, ! UUID
  {7a05e7b2-ebf3-4535-a6f4-2274fe751d2b}, ! Version UUID
  1366305497,                             ! Creation Timestamp
  1366305497,                             ! Version Timestamp
  {ad8654f8-0da4-49bb-8074-9788e1ad18f3}; ! Name of Object 1

