
OS:Version,
  {22d7a920-f113-41c1-91fb-33f0835c7263}, ! Handle
  0.9.3;                                  ! Version Identifier

OS:SizingPeriod:DesignDay,
  {fa65030a-695f-4a46-9751-e1b27908a5af}, ! Handle
  Saginaw Tri City Intl Ap Ann Htg Wind 99.6% Condns WS=>MCDB, ! Name
  -4.7,                                   ! Maximum Dry-Bulb Temperature {C}
  0,                                      ! Daily Dry-Bulb Temperature Range {deltaC}
  -4.7,                                   ! Humidity Indicating Conditions at Maximum Dry-Bulb {BasedOnField A3}
  98934,                                  ! Barometric Pressure {Pa}
  12.4,                                   ! Wind Speed {m/s}
  260,                                    ! Wind Direction {deg}
  0,                                      ! Sky Clearness
  0,                                      ! Rain Indicator
  0,                                      ! Snow Indicator
  21,                                     ! Day of Month
  1,                                      ! Month
  WinterDesignDay,                        ! Day Type
  0,                                      ! Daylight Saving Time Indicator
  Wetbulb,                                ! Humidity Indicating Type
  ,                                       ! Humidity Indicating Day Schedule Name
  DefaultMultipliers,                     ! Dry-Bulb Temperature Range Modifier Type
  ,                                       ! Dry-Bulb Temperature Range Modifier Schedule Name
  ASHRAEClearSky;                         ! Solar Model Indicator

OS:ComponentData,
  {5970df8f-39ef-4f21-888c-b8a94281efaf}, ! Handle
  Component Data 1,                       ! Name
  {9028433b-1d94-45c0-8533-42160011bfe6}, ! UUID
  {e263227b-7a58-41fb-b714-7d51357af4cf}, ! Version UUID
  1366308095,                             ! Creation Timestamp
  1366308095,                             ! Version Timestamp
  {fa65030a-695f-4a46-9751-e1b27908a5af}; ! Name of Object 1

