
OS:Version,
  {6ed2eb43-5ac2-4201-b8a1-5bf7ea8d01f3}, ! Handle
  0.9.3;                                  ! Version Identifier

OS:SizingPeriod:DesignDay,
  {6524e610-131c-43c8-adae-29f55fe59ae2}, ! Handle
  Pensacola Regional Ap Ann Hum_n 99.6% Condns DP=>MCDB, ! Name
  2.1,                                    ! Maximum Dry-Bulb Temperature {C}
  0,                                      ! Daily Dry-Bulb Temperature Range {deltaC}
  -11.1,                                  ! Humidity Indicating Conditions at Maximum Dry-Bulb {BasedOnField A3}
  100917,                                 ! Barometric Pressure {Pa}
  3.8,                                    ! Wind Speed {m/s}
  0,                                      ! Wind Direction {deg}
  0,                                      ! Sky Clearness
  0,                                      ! Rain Indicator
  0,                                      ! Snow Indicator
  21,                                     ! Day of Month
  1,                                      ! Month
  WinterDesignDay,                        ! Day Type
  0,                                      ! Daylight Saving Time Indicator
  Dewpoint,                               ! Humidity Indicating Type
  ,                                       ! Humidity Indicating Day Schedule Name
  DefaultMultipliers,                     ! Dry-Bulb Temperature Range Modifier Type
  ,                                       ! Dry-Bulb Temperature Range Modifier Schedule Name
  ASHRAEClearSky;                         ! Solar Model Indicator

OS:ComponentData,
  {524949c9-c2f7-4193-a86b-e0d4b55f1809}, ! Handle
  Component Data 1,                       ! Name
  {365d7334-401f-4fe4-a542-d4f9dce83462}, ! UUID
  {98d376f9-9763-4d31-899d-f60e7c5e9fba}, ! Version UUID
  1366306904,                             ! Creation Timestamp
  1366306904,                             ! Version Timestamp
  {6524e610-131c-43c8-adae-29f55fe59ae2}; ! Name of Object 1

