
OS:Version,
  {02a0a630-4d80-48b5-8e2e-ae64a03ca953}, ! Handle
  0.9.3;                                  ! Version Identifier

OS:SizingPeriod:DesignDay,
  {d3ff64d7-93e8-467f-b122-f904e6e9389d}, ! Handle
  Tupelo C D Lemons Arpt Ann Htg 99.6% Condns DB, ! Name
  -7.6,                                   ! Maximum Dry-Bulb Temperature {C}
  0,                                      ! Daily Dry-Bulb Temperature Range {deltaC}
  -7.6,                                   ! Humidity Indicating Conditions at Maximum Dry-Bulb {BasedOnField A3}
  100011,                                 ! Barometric Pressure {Pa}
  3,                                      ! Wind Speed {m/s}
  0,                                      ! Wind Direction {deg}
  0,                                      ! Sky Clearness
  0,                                      ! Rain Indicator
  0,                                      ! Snow Indicator
  21,                                     ! Day of Month
  1,                                      ! Month
  WinterDesignDay,                        ! Day Type
  0,                                      ! Daylight Saving Time Indicator
  Wetbulb,                                ! Humidity Indicating Type
  ,                                       ! Humidity Indicating Day Schedule Name
  DefaultMultipliers,                     ! Dry-Bulb Temperature Range Modifier Type
  ,                                       ! Dry-Bulb Temperature Range Modifier Schedule Name
  ASHRAEClearSky;                         ! Solar Model Indicator

OS:ComponentData,
  {36eb5421-6047-4ab0-898c-08c5034ce8ee}, ! Handle
  Component Data 1,                       ! Name
  {7e8669ac-d7c5-4fbb-afcf-be8073956927}, ! UUID
  {d8b47200-5a4c-424c-ab08-3ba607eeb755}, ! Version UUID
  1366308689,                             ! Creation Timestamp
  1366308689,                             ! Version Timestamp
  {d3ff64d7-93e8-467f-b122-f904e6e9389d}; ! Name of Object 1

