
OS:Version,
  {c7f099cc-dffc-4243-ae9c-13fb95e29129}, ! Handle
  0.9.3;                                  ! Version Identifier

OS:SizingPeriod:DesignDay,
  {ecbcd484-4a8a-4565-80bd-3cde0c88daf9}, ! Handle
  Roseau Muni  Awos Ann Clg 1% Condns WB=>MDB, ! Name
  27.2,                                   ! Maximum Dry-Bulb Temperature {C}
  11.5,                                   ! Daily Dry-Bulb Temperature Range {deltaC}
  23.2,                                   ! Humidity Indicating Conditions at Maximum Dry-Bulb {BasedOnField A3}
  97504,                                  ! Barometric Pressure {Pa}
  5.1,                                    ! Wind Speed {m/s}
  200,                                    ! Wind Direction {deg}
  0,                                      ! Sky Clearness
  0,                                      ! Rain Indicator
  0,                                      ! Snow Indicator
  21,                                     ! Day of Month
  7,                                      ! Month
  SummerDesignDay,                        ! Day Type
  0,                                      ! Daylight Saving Time Indicator
  Wetbulb,                                ! Humidity Indicating Type
  ,                                       ! Humidity Indicating Day Schedule Name
  DefaultMultipliers,                     ! Dry-Bulb Temperature Range Modifier Type
  ,                                       ! Dry-Bulb Temperature Range Modifier Schedule Name
  ASHRAETau,                              ! Solar Model Indicator
  ,                                       ! Beam Solar Day Schedule Name
  ,                                       ! Diffuse Solar Day Schedule Name
  0.397,                                  ! ASHRAE Taub {dimensionless}
  2.252;                                  ! ASHRAE Taud {dimensionless}

OS:ComponentData,
  {d9c07c52-ebe6-4a26-a592-860f8ec2d1ce}, ! Handle
  Component Data 1,                       ! Name
  {b4d89908-6664-4950-9195-c4ca6e30f212}, ! UUID
  {4c5fdd25-2678-4a3f-99e7-c046cc9cb892}, ! Version UUID
  1366308405,                             ! Creation Timestamp
  1366308405,                             ! Version Timestamp
  {ecbcd484-4a8a-4565-80bd-3cde0c88daf9}; ! Name of Object 1

