
OS:Version,
  {aadd9174-8304-425f-994f-f3c9a27d57bf}, ! Handle
  0.9.3;                                  ! Version Identifier

OS:SizingPeriod:DesignDay,
  {72d755af-bd9a-428b-b01f-47568606d538}, ! Handle
  Springfield Regional Arpt Ann Clg .4% Condns DB=>MWB, ! Name
  35,                                     ! Maximum Dry-Bulb Temperature {C}
  11,                                     ! Daily Dry-Bulb Temperature Range {deltaC}
  23.6,                                   ! Humidity Indicating Conditions at Maximum Dry-Bulb {BasedOnField A3}
  96796,                                  ! Barometric Pressure {Pa}
  3.9,                                    ! Wind Speed {m/s}
  180,                                    ! Wind Direction {deg}
  0,                                      ! Sky Clearness
  0,                                      ! Rain Indicator
  0,                                      ! Snow Indicator
  21,                                     ! Day of Month
  7,                                      ! Month
  SummerDesignDay,                        ! Day Type
  0,                                      ! Daylight Saving Time Indicator
  Wetbulb,                                ! Humidity Indicating Type
  ,                                       ! Humidity Indicating Day Schedule Name
  DefaultMultipliers,                     ! Dry-Bulb Temperature Range Modifier Type
  ,                                       ! Dry-Bulb Temperature Range Modifier Schedule Name
  ASHRAETau,                              ! Solar Model Indicator
  ,                                       ! Beam Solar Day Schedule Name
  ,                                       ! Diffuse Solar Day Schedule Name
  0.448,                                  ! ASHRAE Taub {dimensionless}
  2.097;                                  ! ASHRAE Taud {dimensionless}

OS:ComponentData,
  {20e89038-e894-4b14-8acb-910188243d48}, ! Handle
  Component Data 1,                       ! Name
  {3c53ea75-15aa-4e8c-a44c-96c88ef5da93}, ! UUID
  {53c8116f-a005-4f2d-8e28-d1d2aee9c56f}, ! Version UUID
  1366308571,                             ! Creation Timestamp
  1366308571,                             ! Version Timestamp
  {72d755af-bd9a-428b-b01f-47568606d538}; ! Name of Object 1

