
OS:Version,
  {def97e88-dea6-44e8-a450-fdbf98b6a847}, ! Handle
  0.9.3;                                  ! Version Identifier

OS:SizingPeriod:DesignDay,
  {785d14a4-ba93-4467-908a-5d7c35ea224d}, ! Handle
  TOPEKA Ann Clg 2% Condns DP=>MDB,       ! Name
  28.5,                                   ! Maximum Dry-Bulb Temperature {C}
  11.3,                                   ! Daily Dry-Bulb Temperature Range {deltaC}
  22.8,                                   ! Humidity Indicating Conditions at Maximum Dry-Bulb {BasedOnField A3}
  98123,                                  ! Barometric Pressure {Pa}
  4.9,                                    ! Wind Speed {m/s}
  200,                                    ! Wind Direction {deg}
  0,                                      ! Sky Clearness
  0,                                      ! Rain Indicator
  0,                                      ! Snow Indicator
  21,                                     ! Day of Month
  7,                                      ! Month
  SummerDesignDay,                        ! Day Type
  0,                                      ! Daylight Saving Time Indicator
  Dewpoint,                               ! Humidity Indicating Type
  ,                                       ! Humidity Indicating Day Schedule Name
  DefaultMultipliers,                     ! Dry-Bulb Temperature Range Modifier Type
  ,                                       ! Dry-Bulb Temperature Range Modifier Schedule Name
  ASHRAETau,                              ! Solar Model Indicator
  ,                                       ! Beam Solar Day Schedule Name
  ,                                       ! Diffuse Solar Day Schedule Name
  0.434,                                  ! ASHRAE Taub {dimensionless}
  2.183;                                  ! ASHRAE Taud {dimensionless}

OS:ComponentData,
  {090c2a65-8003-48f5-94eb-b3fb689f0d59}, ! Handle
  Component Data 1,                       ! Name
  {182025e6-b08a-4df9-9501-ee39689fbae4}, ! UUID
  {27580cbe-cc8e-42fc-9546-0d0b7f207525}, ! Version UUID
  1366307592,                             ! Creation Timestamp
  1366307592,                             ! Version Timestamp
  {785d14a4-ba93-4467-908a-5d7c35ea224d}; ! Name of Object 1

