
OS:Version,
  {89c0a437-ec6c-414c-8222-e87a1f338d85}, ! Handle
  0.9.3;                                  ! Version Identifier

OS:SizingPeriod:DesignDay,
  {355039c0-9182-4d8a-b76c-ecdf04d4fc6e}, ! Handle
  San Luis Co Rgnl Ann Clg .4% Condns Enth=>MDB, ! Name
  28,                                     ! Maximum Dry-Bulb Temperature {C}
  12.2,                                   ! Daily Dry-Bulb Temperature Range {deltaC}
  56100,                                  ! Humidity Indicating Conditions at Maximum Dry-Bulb {BasedOnField A3}
  100535,                                 ! Barometric Pressure {Pa}
  4.9,                                    ! Wind Speed {m/s}
  300,                                    ! Wind Direction {deg}
  0,                                      ! Sky Clearness
  0,                                      ! Rain Indicator
  0,                                      ! Snow Indicator
  21,                                     ! Day of Month
  8,                                      ! Month
  SummerDesignDay,                        ! Day Type
  0,                                      ! Daylight Saving Time Indicator
  Enthalpy,                               ! Humidity Indicating Type
  ,                                       ! Humidity Indicating Day Schedule Name
  DefaultMultipliers,                     ! Dry-Bulb Temperature Range Modifier Type
  ,                                       ! Dry-Bulb Temperature Range Modifier Schedule Name
  ASHRAETau,                              ! Solar Model Indicator
  ,                                       ! Beam Solar Day Schedule Name
  ,                                       ! Diffuse Solar Day Schedule Name
  0.375,                                  ! ASHRAE Taub {dimensionless}
  2.406;                                  ! ASHRAE Taud {dimensionless}

OS:ComponentData,
  {f863bc01-981f-4639-8229-5c6031e40260}, ! Handle
  Component Data 1,                       ! Name
  {743b4c8a-7ed9-4b4b-8b29-642596a1b2b7}, ! UUID
  {28dc3458-c502-4aa3-ac1a-d5f47af93027}, ! Version UUID
  1366306601,                             ! Creation Timestamp
  1366306601,                             ! Version Timestamp
  {355039c0-9182-4d8a-b76c-ecdf04d4fc6e}; ! Name of Object 1

