
OS:Version,
  {a0150a63-734f-42d7-9fd5-5486dc45d348}, ! Handle
  0.9.3;                                  ! Version Identifier

OS:SizingPeriod:DesignDay,
  {9503981c-6be7-448a-bb1b-bc82f7ce5b02}, ! Handle
  Roseau Muni  Awos Ann Hum_n 99.6% Condns DP=>MCDB, ! Name
  -30.7,                                  ! Maximum Dry-Bulb Temperature {C}
  0,                                      ! Daily Dry-Bulb Temperature Range {deltaC}
  -37.1,                                  ! Humidity Indicating Conditions at Maximum Dry-Bulb {BasedOnField A3}
  97504,                                  ! Barometric Pressure {Pa}
  1.9,                                    ! Wind Speed {m/s}
  210,                                    ! Wind Direction {deg}
  0,                                      ! Sky Clearness
  0,                                      ! Rain Indicator
  0,                                      ! Snow Indicator
  21,                                     ! Day of Month
  1,                                      ! Month
  WinterDesignDay,                        ! Day Type
  0,                                      ! Daylight Saving Time Indicator
  Dewpoint,                               ! Humidity Indicating Type
  ,                                       ! Humidity Indicating Day Schedule Name
  DefaultMultipliers,                     ! Dry-Bulb Temperature Range Modifier Type
  ,                                       ! Dry-Bulb Temperature Range Modifier Schedule Name
  ASHRAEClearSky;                         ! Solar Model Indicator

OS:ComponentData,
  {9f34e50d-3980-4c37-97c9-951fbc5863eb}, ! Handle
  Component Data 1,                       ! Name
  {d4139be7-f3a2-4486-9d4d-bbc12937f309}, ! UUID
  {0d9917a7-0ec1-439e-9c59-8f8e2d901aeb}, ! Version UUID
  1366308403,                             ! Creation Timestamp
  1366308403,                             ! Version Timestamp
  {9503981c-6be7-448a-bb1b-bc82f7ce5b02}; ! Name of Object 1

