
OS:Version,
  {12f18450-ec6b-4b0b-aafd-3fd953cc2c7d}, ! Handle
  0.9.3;                                  ! Version Identifier

OS:SizingPeriod:DesignDay,
  {ec68ad8d-e65f-4c7d-99ff-bdc6b5e3b73f}, ! Handle
  Pasco Ann Hum_n 99% Condns DP=>MCDB,    ! Name
  -8.2,                                   ! Maximum Dry-Bulb Temperature {C}
  0,                                      ! Daily Dry-Bulb Temperature Range {deltaC}
  -13.6,                                  ! Humidity Indicating Conditions at Maximum Dry-Bulb {BasedOnField A3}
  99702,                                  ! Barometric Pressure {Pa}
  2.5,                                    ! Wind Speed {m/s}
  310,                                    ! Wind Direction {deg}
  0,                                      ! Sky Clearness
  0,                                      ! Rain Indicator
  0,                                      ! Snow Indicator
  21,                                     ! Day of Month
  12,                                     ! Month
  WinterDesignDay,                        ! Day Type
  0,                                      ! Daylight Saving Time Indicator
  Dewpoint,                               ! Humidity Indicating Type
  ,                                       ! Humidity Indicating Day Schedule Name
  DefaultMultipliers,                     ! Dry-Bulb Temperature Range Modifier Type
  ,                                       ! Dry-Bulb Temperature Range Modifier Schedule Name
  ASHRAEClearSky;                         ! Solar Model Indicator

OS:ComponentData,
  {2557eeaf-cb25-422c-83a0-d77c0e0ab8e9}, ! Handle
  Component Data 1,                       ! Name
  {bc88ed7f-b413-4330-b153-b9f0f5fae01a}, ! UUID
  {ab96754e-2623-420c-8be7-c41f8c4fc291}, ! Version UUID
  1366311319,                             ! Creation Timestamp
  1366311319,                             ! Version Timestamp
  {ec68ad8d-e65f-4c7d-99ff-bdc6b5e3b73f}; ! Name of Object 1

