
OS:Version,
  {02b4931b-b872-47e2-9eb7-81fe5848a066}, ! Handle
  0.9.3;                                  ! Version Identifier

OS:SizingPeriod:DesignDay,
  {13a660fb-db65-4dcc-b524-93eb373414e8}, ! Handle
  Norfolk Nas Ann Clg 1% Condns DB=>MWB,  ! Name
  32.9,                                   ! Maximum Dry-Bulb Temperature {C}
  7.9,                                    ! Daily Dry-Bulb Temperature Range {deltaC}
  24.8,                                   ! Humidity Indicating Conditions at Maximum Dry-Bulb {BasedOnField A3}
  101205,                                 ! Barometric Pressure {Pa}
  4.3,                                    ! Wind Speed {m/s}
  210,                                    ! Wind Direction {deg}
  0,                                      ! Sky Clearness
  0,                                      ! Rain Indicator
  0,                                      ! Snow Indicator
  21,                                     ! Day of Month
  7,                                      ! Month
  SummerDesignDay,                        ! Day Type
  0,                                      ! Daylight Saving Time Indicator
  Wetbulb,                                ! Humidity Indicating Type
  ,                                       ! Humidity Indicating Day Schedule Name
  DefaultMultipliers,                     ! Dry-Bulb Temperature Range Modifier Type
  ,                                       ! Dry-Bulb Temperature Range Modifier Schedule Name
  ASHRAETau,                              ! Solar Model Indicator
  ,                                       ! Beam Solar Day Schedule Name
  ,                                       ! Diffuse Solar Day Schedule Name
  0.593,                                  ! ASHRAE Taub {dimensionless}
  1.694;                                  ! ASHRAE Taud {dimensionless}

OS:ComponentData,
  {c01cb355-3ff7-4ada-8d4f-3b8a47717fa6}, ! Handle
  Component Data 1,                       ! Name
  {7cfe22d2-da95-4e5f-9da3-f495ad4d78fe}, ! UUID
  {5236db27-7ca6-4154-a45c-9e291fc5ebb3}, ! Version UUID
  1366311139,                             ! Creation Timestamp
  1366311139,                             ! Version Timestamp
  {13a660fb-db65-4dcc-b524-93eb373414e8}; ! Name of Object 1

