
OS:Version,
  {cafd3404-520e-404c-99a6-232b6e8fac7b}, ! Handle
  0.9.3;                                  ! Version Identifier

OS:SizingPeriod:DesignDay,
  {72cadf5b-76a7-4c3b-acc9-e6185cddc4ef}, ! Handle
  Presque Isle Municip Ann Clg 2% Condns DB=>MWB, ! Name
  26.2,                                   ! Maximum Dry-Bulb Temperature {C}
  11.7,                                   ! Daily Dry-Bulb Temperature Range {deltaC}
  18.2,                                   ! Humidity Indicating Conditions at Maximum Dry-Bulb {BasedOnField A3}
  99382,                                  ! Barometric Pressure {Pa}
  4.5,                                    ! Wind Speed {m/s}
  270,                                    ! Wind Direction {deg}
  0,                                      ! Sky Clearness
  0,                                      ! Rain Indicator
  0,                                      ! Snow Indicator
  21,                                     ! Day of Month
  7,                                      ! Month
  SummerDesignDay,                        ! Day Type
  0,                                      ! Daylight Saving Time Indicator
  Wetbulb,                                ! Humidity Indicating Type
  ,                                       ! Humidity Indicating Day Schedule Name
  DefaultMultipliers,                     ! Dry-Bulb Temperature Range Modifier Type
  ,                                       ! Dry-Bulb Temperature Range Modifier Schedule Name
  ASHRAETau,                              ! Solar Model Indicator
  ,                                       ! Beam Solar Day Schedule Name
  ,                                       ! Diffuse Solar Day Schedule Name
  0.432,                                  ! ASHRAE Taub {dimensionless}
  2.1;                                    ! ASHRAE Taud {dimensionless}

OS:ComponentData,
  {c3ae0591-68f1-44b6-9e71-66c6d7407b9e}, ! Handle
  Component Data 1,                       ! Name
  {1edabb2a-b1e4-4aed-876b-3cc7d84bd01d}, ! UUID
  {2298b986-2468-4ef3-b8a0-f556fcd38f67}, ! Version UUID
  1366307918,                             ! Creation Timestamp
  1366307918,                             ! Version Timestamp
  {72cadf5b-76a7-4c3b-acc9-e6185cddc4ef}; ! Name of Object 1

