
OS:Version,
  {f4bdb53f-965f-4476-8242-4925fd24595c}, ! Handle
  0.9.3;                                  ! Version Identifier

OS:SizingPeriod:DesignDay,
  {70bb8188-7445-4292-9d8c-347aaf173ee9}, ! Handle
  Orr Ann Clg 1% Condns Enth=>MDB,        ! Name
  25.5,                                   ! Maximum Dry-Bulb Temperature {C}
  12.4,                                   ! Daily Dry-Bulb Temperature Range {deltaC}
  67900,                                  ! Humidity Indicating Conditions at Maximum Dry-Bulb {BasedOnField A3}
  96646,                                  ! Barometric Pressure {Pa}
  4.3,                                    ! Wind Speed {m/s}
  190,                                    ! Wind Direction {deg}
  0,                                      ! Sky Clearness
  0,                                      ! Rain Indicator
  0,                                      ! Snow Indicator
  21,                                     ! Day of Month
  7,                                      ! Month
  SummerDesignDay,                        ! Day Type
  0,                                      ! Daylight Saving Time Indicator
  Enthalpy,                               ! Humidity Indicating Type
  ,                                       ! Humidity Indicating Day Schedule Name
  DefaultMultipliers,                     ! Dry-Bulb Temperature Range Modifier Type
  ,                                       ! Dry-Bulb Temperature Range Modifier Schedule Name
  ASHRAETau,                              ! Solar Model Indicator
  ,                                       ! Beam Solar Day Schedule Name
  ,                                       ! Diffuse Solar Day Schedule Name
  0.404,                                  ! ASHRAE Taub {dimensionless}
  2.189;                                  ! ASHRAE Taud {dimensionless}

OS:ComponentData,
  {bebc065f-193c-469d-ba0a-6259c3f77141}, ! Handle
  Component Data 1,                       ! Name
  {24932a00-7f4f-43c7-a3ac-3718af453346}, ! UUID
  {b50413db-0e9f-4a81-938e-2579cae82696}, ! Version UUID
  1366308349,                             ! Creation Timestamp
  1366308349,                             ! Version Timestamp
  {70bb8188-7445-4292-9d8c-347aaf173ee9}; ! Name of Object 1

