
OS:Version,
  {f9778363-819f-41b0-91fd-ab0394c8942f}, ! Handle
  0.9.3;                                  ! Version Identifier

OS:SizingPeriod:DesignDay,
  {17ca003a-3219-4798-ad5e-b33529b4a297}, ! Handle
  Pierre Municipal Ap Ann Htg 99.6% Condns DB, ! Name
  -24.3,                                  ! Maximum Dry-Bulb Temperature {C}
  0,                                      ! Daily Dry-Bulb Temperature Range {deltaC}
  -24.3,                                  ! Humidity Indicating Conditions at Maximum Dry-Bulb {BasedOnField A3}
  95141,                                  ! Barometric Pressure {Pa}
  4.6,                                    ! Wind Speed {m/s}
  310,                                    ! Wind Direction {deg}
  0,                                      ! Sky Clearness
  0,                                      ! Rain Indicator
  0,                                      ! Snow Indicator
  21,                                     ! Day of Month
  1,                                      ! Month
  WinterDesignDay,                        ! Day Type
  0,                                      ! Daylight Saving Time Indicator
  Wetbulb,                                ! Humidity Indicating Type
  ,                                       ! Humidity Indicating Day Schedule Name
  DefaultMultipliers,                     ! Dry-Bulb Temperature Range Modifier Type
  ,                                       ! Dry-Bulb Temperature Range Modifier Schedule Name
  ASHRAEClearSky;                         ! Solar Model Indicator

OS:ComponentData,
  {6066e2fc-305d-4a31-969f-042045da697c}, ! Handle
  Component Data 1,                       ! Name
  {2eebcc9b-6d4e-4a14-a501-165a1c465037}, ! UUID
  {3b9a86c8-6515-45b9-9b8d-d2f169e7be0f}, ! Version UUID
  1366310434,                             ! Creation Timestamp
  1366310434,                             ! Version Timestamp
  {17ca003a-3219-4798-ad5e-b33529b4a297}; ! Name of Object 1

