
OS:Version,
  {6580b9aa-a447-4d68-97b6-adfd582e9e77}, ! Handle
  0.9.3;                                  ! Version Identifier

OS:SizingPeriod:DesignDay,
  {66544876-4b5f-4d46-871a-13f0bb714ab0}, ! Handle
  Morgantown Hart Field Ann Hum_n 99.6% Condns DP=>MCDB, ! Name
  -12.3,                                  ! Maximum Dry-Bulb Temperature {C}
  0,                                      ! Daily Dry-Bulb Temperature Range {deltaC}
  -20,                                    ! Humidity Indicating Conditions at Maximum Dry-Bulb {BasedOnField A3}
  96866,                                  ! Barometric Pressure {Pa}
  2.7,                                    ! Wind Speed {m/s}
  240,                                    ! Wind Direction {deg}
  0,                                      ! Sky Clearness
  0,                                      ! Rain Indicator
  0,                                      ! Snow Indicator
  21,                                     ! Day of Month
  1,                                      ! Month
  WinterDesignDay,                        ! Day Type
  0,                                      ! Daylight Saving Time Indicator
  Dewpoint,                               ! Humidity Indicating Type
  ,                                       ! Humidity Indicating Day Schedule Name
  DefaultMultipliers,                     ! Dry-Bulb Temperature Range Modifier Type
  ,                                       ! Dry-Bulb Temperature Range Modifier Schedule Name
  ASHRAEClearSky;                         ! Solar Model Indicator

OS:ComponentData,
  {96618d0e-eaab-4a59-abd4-de8b9a50409f}, ! Handle
  Component Data 1,                       ! Name
  {17844ef0-f5b1-48fc-91fa-162ef1049caa}, ! UUID
  {9811e813-c24e-4b2d-bdae-b05edeb21ee0}, ! Version UUID
  1366311670,                             ! Creation Timestamp
  1366311670,                             ! Version Timestamp
  {66544876-4b5f-4d46-871a-13f0bb714ab0}; ! Name of Object 1

