
OS:Version,
  {bb97f60c-1644-47ca-b046-6bc17c0a24ec}, ! Handle
  0.9.3;                                  ! Version Identifier

OS:SizingPeriod:DesignDay,
  {364a425f-065b-4ad6-bd98-6a9e0a25fe16}, ! Handle
  Wilkes-Barre/Scranton Ann Hum_n 99.6% Condns DP=>MCDB, ! Name
  -14.6,                                  ! Maximum Dry-Bulb Temperature {C}
  0,                                      ! Daily Dry-Bulb Temperature Range {deltaC}
  -22.1,                                  ! Humidity Indicating Conditions at Maximum Dry-Bulb {BasedOnField A3}
  97901,                                  ! Barometric Pressure {Pa}
  3.7,                                    ! Wind Speed {m/s}
  240,                                    ! Wind Direction {deg}
  0,                                      ! Sky Clearness
  0,                                      ! Rain Indicator
  0,                                      ! Snow Indicator
  21,                                     ! Day of Month
  1,                                      ! Month
  WinterDesignDay,                        ! Day Type
  0,                                      ! Daylight Saving Time Indicator
  Dewpoint,                               ! Humidity Indicating Type
  ,                                       ! Humidity Indicating Day Schedule Name
  DefaultMultipliers,                     ! Dry-Bulb Temperature Range Modifier Type
  ,                                       ! Dry-Bulb Temperature Range Modifier Schedule Name
  ASHRAEClearSky;                         ! Solar Model Indicator

OS:ComponentData,
  {bf2c1cc0-b119-4d4f-be3a-923647f2961c}, ! Handle
  Component Data 1,                       ! Name
  {a33e3efe-9cc3-46bf-acde-b306e79e0d45}, ! UUID
  {a4962df2-2028-43bb-83c1-ec12ba06ab4c}, ! Version UUID
  1366310261,                             ! Creation Timestamp
  1366310261,                             ! Version Timestamp
  {364a425f-065b-4ad6-bd98-6a9e0a25fe16}; ! Name of Object 1

