
OS:Version,
  {7cf31f3a-fd20-49c0-9d3d-f6d657e14a99}, ! Handle
  0.9.3;                                  ! Version Identifier

OS:SizingPeriod:DesignDay,
  {8d4def40-b10b-432f-b1af-924fa47df658}, ! Handle
  ROCHESTER Ann Htg 99% Condns DB,        ! Name
  -22.9,                                  ! Maximum Dry-Bulb Temperature {C}
  0,                                      ! Daily Dry-Bulb Temperature Range {deltaC}
  -22.9,                                  ! Humidity Indicating Conditions at Maximum Dry-Bulb {BasedOnField A3}
  96588,                                  ! Barometric Pressure {Pa}
  5.7,                                    ! Wind Speed {m/s}
  310,                                    ! Wind Direction {deg}
  0,                                      ! Sky Clearness
  0,                                      ! Rain Indicator
  0,                                      ! Snow Indicator
  21,                                     ! Day of Month
  1,                                      ! Month
  WinterDesignDay,                        ! Day Type
  0,                                      ! Daylight Saving Time Indicator
  Wetbulb,                                ! Humidity Indicating Type
  ,                                       ! Humidity Indicating Day Schedule Name
  DefaultMultipliers,                     ! Dry-Bulb Temperature Range Modifier Type
  ,                                       ! Dry-Bulb Temperature Range Modifier Schedule Name
  ASHRAEClearSky;                         ! Solar Model Indicator

OS:ComponentData,
  {7358578e-4eb9-47d3-be74-37bb579ff065}, ! Handle
  Component Data 1,                       ! Name
  {05acff9d-a302-4c67-914a-9f3af39f91f8}, ! UUID
  {c1c29c2d-39b9-42b9-a96b-bc0ffd7c9b7f}, ! Version UUID
  1366308385,                             ! Creation Timestamp
  1366308385,                             ! Version Timestamp
  {8d4def40-b10b-432f-b1af-924fa47df658}; ! Name of Object 1

