
OS:Version,
  {02ec93c5-17a9-4b3d-85ef-c402c6cb9273}, ! Handle
  0.9.3;                                  ! Version Identifier

OS:SizingPeriod:DesignDay,
  {ba393d17-9117-44d4-9ba7-5066b87e47de}, ! Handle
  Oakland Co Intl Ann Hum_n 99.6% Condns DP=>MCDB, ! Name
  -15.8,                                  ! Maximum Dry-Bulb Temperature {C}
  0,                                      ! Daily Dry-Bulb Temperature Range {deltaC}
  -21.4,                                  ! Humidity Indicating Conditions at Maximum Dry-Bulb {BasedOnField A3}
  97703,                                  ! Barometric Pressure {Pa}
  3.6,                                    ! Wind Speed {m/s}
  300,                                    ! Wind Direction {deg}
  0,                                      ! Sky Clearness
  0,                                      ! Rain Indicator
  0,                                      ! Snow Indicator
  21,                                     ! Day of Month
  1,                                      ! Month
  WinterDesignDay,                        ! Day Type
  0,                                      ! Daylight Saving Time Indicator
  Dewpoint,                               ! Humidity Indicating Type
  ,                                       ! Humidity Indicating Day Schedule Name
  DefaultMultipliers,                     ! Dry-Bulb Temperature Range Modifier Type
  ,                                       ! Dry-Bulb Temperature Range Modifier Schedule Name
  ASHRAEClearSky;                         ! Solar Model Indicator

OS:ComponentData,
  {f73e68f3-de8a-4217-8dc9-86493e9e06d6}, ! Handle
  Component Data 1,                       ! Name
  {b08727ca-6905-486e-a2f9-1d06b80ef887}, ! UUID
  {4112248c-3c81-4cd6-b721-e7ea65c1dd3c}, ! Version UUID
  1366308079,                             ! Creation Timestamp
  1366308079,                             ! Version Timestamp
  {ba393d17-9117-44d4-9ba7-5066b87e47de}; ! Name of Object 1

