
OS:Version,
  {50ae0312-cfb7-4a25-a5aa-a60c6daf4d45}, ! Handle
  0.9.3;                                  ! Version Identifier

OS:SizingPeriod:DesignDay,
  {7df11fd3-a21f-4e91-a028-3d48db773f96}, ! Handle
  Muscle Shoals Regional Ap Ann Clg 2% Condns WB=>MDB, ! Name
  30.5,                                   ! Maximum Dry-Bulb Temperature {C}
  10.8,                                   ! Daily Dry-Bulb Temperature Range {deltaC}
  25,                                     ! Humidity Indicating Conditions at Maximum Dry-Bulb {BasedOnField A3}
  99358,                                  ! Barometric Pressure {Pa}
  3,                                      ! Wind Speed {m/s}
  270,                                    ! Wind Direction {deg}
  0,                                      ! Sky Clearness
  0,                                      ! Rain Indicator
  0,                                      ! Snow Indicator
  21,                                     ! Day of Month
  7,                                      ! Month
  SummerDesignDay,                        ! Day Type
  0,                                      ! Daylight Saving Time Indicator
  Wetbulb,                                ! Humidity Indicating Type
  ,                                       ! Humidity Indicating Day Schedule Name
  DefaultMultipliers,                     ! Dry-Bulb Temperature Range Modifier Type
  ,                                       ! Dry-Bulb Temperature Range Modifier Schedule Name
  ASHRAETau,                              ! Solar Model Indicator
  ,                                       ! Beam Solar Day Schedule Name
  ,                                       ! Diffuse Solar Day Schedule Name
  0.54,                                   ! ASHRAE Taub {dimensionless}
  1.819;                                  ! ASHRAE Taud {dimensionless}

OS:ComponentData,
  {bf8362ac-bb12-4060-a7dd-5b4248e02624}, ! Handle
  Component Data 1,                       ! Name
  {b6257ef4-45b9-4b6b-94e4-a801b4b439d5}, ! UUID
  {f7575b24-890e-48b3-a41c-d280be1fe568}, ! Version UUID
  1366305988,                             ! Creation Timestamp
  1366305988,                             ! Version Timestamp
  {7df11fd3-a21f-4e91-a028-3d48db773f96}; ! Name of Object 1

