
OS:Version,
  {9f5733c9-71c6-4879-ae7b-69c248e19379}, ! Handle
  0.9.3;                                  ! Version Identifier

OS:SizingPeriod:DesignDay,
  {fa9b57de-cd92-4aa5-a5f3-dfcad7bc96c5}, ! Handle
  Wrangell Ann Clg .4% Condns WB=>MDB,    ! Name
  20.1,                                   ! Maximum Dry-Bulb Temperature {C}
  5.6,                                    ! Daily Dry-Bulb Temperature Range {deltaC}
  15.7,                                   ! Humidity Indicating Conditions at Maximum Dry-Bulb {BasedOnField A3}
  101169,                                 ! Barometric Pressure {Pa}
  3.1,                                    ! Wind Speed {m/s}
  310,                                    ! Wind Direction {deg}
  0,                                      ! Sky Clearness
  0,                                      ! Rain Indicator
  0,                                      ! Snow Indicator
  21,                                     ! Day of Month
  7,                                      ! Month
  SummerDesignDay,                        ! Day Type
  0,                                      ! Daylight Saving Time Indicator
  Wetbulb,                                ! Humidity Indicating Type
  ,                                       ! Humidity Indicating Day Schedule Name
  DefaultMultipliers,                     ! Dry-Bulb Temperature Range Modifier Type
  ,                                       ! Dry-Bulb Temperature Range Modifier Schedule Name
  ASHRAETau,                              ! Solar Model Indicator
  ,                                       ! Beam Solar Day Schedule Name
  ,                                       ! Diffuse Solar Day Schedule Name
  0.394,                                  ! ASHRAE Taub {dimensionless}
  2.197;                                  ! ASHRAE Taud {dimensionless}

OS:ComponentData,
  {717f7846-c4da-4b56-9c4d-db7abf6b55dd}, ! Handle
  Component Data 1,                       ! Name
  {3282f0de-7da8-4e2f-a32f-0516233798d1}, ! UUID
  {c100a6b9-b647-4711-8887-4db48b597f12}, ! Version UUID
  1366305617,                             ! Creation Timestamp
  1366305617,                             ! Version Timestamp
  {fa9b57de-cd92-4aa5-a5f3-dfcad7bc96c5}; ! Name of Object 1

