
OS:Version,
  {1458c49c-fc9d-4001-a276-951441a23a72}, ! Handle
  0.9.3;                                  ! Version Identifier

OS:SizingPeriod:DesignDay,
  {d7ce3c6c-ce7c-4766-8005-bea9bb70f392}, ! Handle
  ROCHESTER Ann Hum_n 99.6% Condns DP=>MCDB, ! Name
  -15.9,                                  ! Maximum Dry-Bulb Temperature {C}
  0,                                      ! Daily Dry-Bulb Temperature Range {deltaC}
  -20.6,                                  ! Humidity Indicating Conditions at Maximum Dry-Bulb {BasedOnField A3}
  99311,                                  ! Barometric Pressure {Pa}
  3.9,                                    ! Wind Speed {m/s}
  240,                                    ! Wind Direction {deg}
  0,                                      ! Sky Clearness
  0,                                      ! Rain Indicator
  0,                                      ! Snow Indicator
  21,                                     ! Day of Month
  1,                                      ! Month
  WinterDesignDay,                        ! Day Type
  0,                                      ! Daylight Saving Time Indicator
  Dewpoint,                               ! Humidity Indicating Type
  ,                                       ! Humidity Indicating Day Schedule Name
  DefaultMultipliers,                     ! Dry-Bulb Temperature Range Modifier Type
  ,                                       ! Dry-Bulb Temperature Range Modifier Schedule Name
  ASHRAEClearSky;                         ! Solar Model Indicator

OS:ComponentData,
  {686b71c2-5402-4fd3-b2d1-408b7a6bae92}, ! Handle
  Component Data 1,                       ! Name
  {1eba39bb-d181-40e2-92b3-fcd0f7820ed8}, ! UUID
  {913e0515-e5d5-46cc-b5bf-4351fe4005c6}, ! Version UUID
  1366309723,                             ! Creation Timestamp
  1366309723,                             ! Version Timestamp
  {d7ce3c6c-ce7c-4766-8005-bea9bb70f392}; ! Name of Object 1

