
OS:Version,
  {6aad7eee-ef82-437d-a737-1d57688385da}, ! Handle
  0.9.3;                                  ! Version Identifier

OS:SizingPeriod:DesignDay,
  {3667ee21-0bb7-46c4-8719-db77230a8466}, ! Handle
  San Diego Montgomer Ann Htg Wind 99.6% Condns WS=>MCDB, ! Name
  15.3,                                   ! Maximum Dry-Bulb Temperature {C}
  0,                                      ! Daily Dry-Bulb Temperature Range {deltaC}
  15.3,                                   ! Humidity Indicating Conditions at Maximum Dry-Bulb {BasedOnField A3}
  99785,                                  ! Barometric Pressure {Pa}
  8.8,                                    ! Wind Speed {m/s}
  40,                                     ! Wind Direction {deg}
  0,                                      ! Sky Clearness
  0,                                      ! Rain Indicator
  0,                                      ! Snow Indicator
  21,                                     ! Day of Month
  12,                                     ! Month
  WinterDesignDay,                        ! Day Type
  0,                                      ! Daylight Saving Time Indicator
  Wetbulb,                                ! Humidity Indicating Type
  ,                                       ! Humidity Indicating Day Schedule Name
  DefaultMultipliers,                     ! Dry-Bulb Temperature Range Modifier Type
  ,                                       ! Dry-Bulb Temperature Range Modifier Schedule Name
  ASHRAEClearSky;                         ! Solar Model Indicator

OS:ComponentData,
  {75990ad2-b06e-4491-a4e0-9789aa16dea3}, ! Handle
  Component Data 1,                       ! Name
  {666d971a-d0cc-4f26-a4d8-98f3e688fcd2}, ! UUID
  {b43708cc-479f-4b11-b68c-c8020c3de7ac}, ! Version UUID
  1366306579,                             ! Creation Timestamp
  1366306579,                             ! Version Timestamp
  {3667ee21-0bb7-46c4-8719-db77230a8466}; ! Name of Object 1

