
OS:Version,
  {fcda446d-44bb-42dc-9a64-e2037c076745}, ! Handle
  0.9.3;                                  ! Version Identifier

OS:SizingPeriod:DesignDay,
  {ca8f55b9-e409-47b1-8d25-81257b9cad16}, ! Handle
  Victoria Regional Ap Ann Clg .4% Condns Enth=>MDB, ! Name
  30.8,                                   ! Maximum Dry-Bulb Temperature {C}
  10.6,                                   ! Daily Dry-Bulb Temperature Range {deltaC}
  83500,                                  ! Humidity Indicating Conditions at Maximum Dry-Bulb {BasedOnField A3}
  100905,                                 ! Barometric Pressure {Pa}
  4.9,                                    ! Wind Speed {m/s}
  170,                                    ! Wind Direction {deg}
  0,                                      ! Sky Clearness
  0,                                      ! Rain Indicator
  0,                                      ! Snow Indicator
  21,                                     ! Day of Month
  8,                                      ! Month
  SummerDesignDay,                        ! Day Type
  0,                                      ! Daylight Saving Time Indicator
  Enthalpy,                               ! Humidity Indicating Type
  ,                                       ! Humidity Indicating Day Schedule Name
  DefaultMultipliers,                     ! Dry-Bulb Temperature Range Modifier Type
  ,                                       ! Dry-Bulb Temperature Range Modifier Schedule Name
  ASHRAETau,                              ! Solar Model Indicator
  ,                                       ! Beam Solar Day Schedule Name
  ,                                       ! Diffuse Solar Day Schedule Name
  0.474,                                  ! ASHRAE Taub {dimensionless}
  2.062;                                  ! ASHRAE Taud {dimensionless}

OS:ComponentData,
  {3dfb5ba2-3c6d-4468-8391-60cceb0b1cde}, ! Handle
  Component Data 1,                       ! Name
  {5eace362-8c1c-4422-9dce-0b0094afcfbb}, ! UUID
  {52d49648-d82e-4e85-be8b-62dba3d8cf9e}, ! Version UUID
  1366310913,                             ! Creation Timestamp
  1366310913,                             ! Version Timestamp
  {ca8f55b9-e409-47b1-8d25-81257b9cad16}; ! Name of Object 1

