
OS:Version,
  {f90cba5c-b36a-47a1-84da-d3ff27d36b78}, ! Handle
  0.9.3;                                  ! Version Identifier

OS:SizingPeriod:DesignDay,
  {92e59b76-7061-4a4d-af44-e6319d1c0ebf}, ! Handle
  Martinsville Ann Clg 2% Condns DP=>MDB, ! Name
  27,                                     ! Maximum Dry-Bulb Temperature {C}
  12.1,                                   ! Daily Dry-Bulb Temperature Range {deltaC}
  22.8,                                   ! Humidity Indicating Conditions at Maximum Dry-Bulb {BasedOnField A3}
  97924,                                  ! Barometric Pressure {Pa}
  1.8,                                    ! Wind Speed {m/s}
  210,                                    ! Wind Direction {deg}
  0,                                      ! Sky Clearness
  0,                                      ! Rain Indicator
  0,                                      ! Snow Indicator
  21,                                     ! Day of Month
  7,                                      ! Month
  SummerDesignDay,                        ! Day Type
  0,                                      ! Daylight Saving Time Indicator
  Dewpoint,                               ! Humidity Indicating Type
  ,                                       ! Humidity Indicating Day Schedule Name
  DefaultMultipliers,                     ! Dry-Bulb Temperature Range Modifier Type
  ,                                       ! Dry-Bulb Temperature Range Modifier Schedule Name
  ASHRAETau,                              ! Solar Model Indicator
  ,                                       ! Beam Solar Day Schedule Name
  ,                                       ! Diffuse Solar Day Schedule Name
  0.552,                                  ! ASHRAE Taub {dimensionless}
  1.765;                                  ! ASHRAE Taud {dimensionless}

OS:ComponentData,
  {57676698-5e1c-4942-8571-8542d5f9b565}, ! Handle
  Component Data 1,                       ! Name
  {82e5e99e-b470-4f50-a31d-a0665373d95d}, ! UUID
  {064febd0-ab60-4541-b996-a475ef759260}, ! Version UUID
  1366311107,                             ! Creation Timestamp
  1366311107,                             ! Version Timestamp
  {92e59b76-7061-4a4d-af44-e6319d1c0ebf}; ! Name of Object 1

