
OS:Version,
  {d4dac791-660d-49a6-a1a5-0d7cdc713365}, ! Handle
  0.9.3;                                  ! Version Identifier

OS:SizingPeriod:DesignDay,
  {329802fd-1a1d-46c9-a92b-3263ce934cb1}, ! Handle
  Washington Dc Reagan Ap Ann Clg 1% Condns Enth=>MDB, ! Name
  30.9,                                   ! Maximum Dry-Bulb Temperature {C}
  8.9,                                    ! Daily Dry-Bulb Temperature Range {deltaC}
  77200,                                  ! Humidity Indicating Conditions at Maximum Dry-Bulb {BasedOnField A3}
  101289,                                 ! Barometric Pressure {Pa}
  4.6,                                    ! Wind Speed {m/s}
  170,                                    ! Wind Direction {deg}
  0,                                      ! Sky Clearness
  0,                                      ! Rain Indicator
  0,                                      ! Snow Indicator
  21,                                     ! Day of Month
  7,                                      ! Month
  SummerDesignDay,                        ! Day Type
  0,                                      ! Daylight Saving Time Indicator
  Enthalpy,                               ! Humidity Indicating Type
  ,                                       ! Humidity Indicating Day Schedule Name
  DefaultMultipliers,                     ! Dry-Bulb Temperature Range Modifier Type
  ,                                       ! Dry-Bulb Temperature Range Modifier Schedule Name
  ASHRAETau,                              ! Solar Model Indicator
  ,                                       ! Beam Solar Day Schedule Name
  ,                                       ! Diffuse Solar Day Schedule Name
  0.563,                                  ! ASHRAE Taub {dimensionless}
  1.747;                                  ! ASHRAE Taud {dimensionless}

