
OS:Version,
  {6f9a6a8f-33b7-4372-89b5-0610957d5d8e}, ! Handle
  0.9.3;                                  ! Version Identifier

OS:SizingPeriod:DesignDay,
  {82d0ba13-4902-47f7-8b52-cc58b6df5111}, ! Handle
  Warner Robins Afb Ann Htg 99.6% Condns DB, ! Name
  -3.9,                                   ! Maximum Dry-Bulb Temperature {C}
  0,                                      ! Daily Dry-Bulb Temperature Range {deltaC}
  -3.9,                                   ! Humidity Indicating Conditions at Maximum Dry-Bulb {BasedOnField A3}
  100225,                                 ! Barometric Pressure {Pa}
  3,                                      ! Wind Speed {m/s}
  330,                                    ! Wind Direction {deg}
  0,                                      ! Sky Clearness
  0,                                      ! Rain Indicator
  0,                                      ! Snow Indicator
  21,                                     ! Day of Month
  1,                                      ! Month
  WinterDesignDay,                        ! Day Type
  0,                                      ! Daylight Saving Time Indicator
  Wetbulb,                                ! Humidity Indicating Type
  ,                                       ! Humidity Indicating Day Schedule Name
  DefaultMultipliers,                     ! Dry-Bulb Temperature Range Modifier Type
  ,                                       ! Dry-Bulb Temperature Range Modifier Schedule Name
  ASHRAEClearSky;                         ! Solar Model Indicator

OS:ComponentData,
  {73875493-7cf3-459c-b62c-f25b0616c260}, ! Handle
  Component Data 1,                       ! Name
  {7ad4b6a5-8d58-4d7c-9103-ed6c7f1d30b6}, ! UUID
  {13ebe806-0122-4afc-aeca-59a3b2379137}, ! Version UUID
  1366307065,                             ! Creation Timestamp
  1366307065,                             ! Version Timestamp
  {82d0ba13-4902-47f7-8b52-cc58b6df5111}; ! Name of Object 1

