
OS:Version,
  {629fe945-39be-4eb3-841e-e8911c387b88}, ! Handle
  0.9.3;                                  ! Version Identifier

OS:SizingPeriod:DesignDay,
  {f8957fc2-37b3-4e25-8840-5d3b258e9c82}, ! Handle
  Wink Winkler County Ap Ann Clg 2% Condns DP=>MDB, ! Name
  24.7,                                   ! Maximum Dry-Bulb Temperature {C}
  14,                                     ! Daily Dry-Bulb Temperature Range {deltaC}
  19.2,                                   ! Humidity Indicating Conditions at Maximum Dry-Bulb {BasedOnField A3}
  91455,                                  ! Barometric Pressure {Pa}
  4.4,                                    ! Wind Speed {m/s}
  120,                                    ! Wind Direction {deg}
  0,                                      ! Sky Clearness
  0,                                      ! Rain Indicator
  0,                                      ! Snow Indicator
  21,                                     ! Day of Month
  7,                                      ! Month
  SummerDesignDay,                        ! Day Type
  0,                                      ! Daylight Saving Time Indicator
  Dewpoint,                               ! Humidity Indicating Type
  ,                                       ! Humidity Indicating Day Schedule Name
  DefaultMultipliers,                     ! Dry-Bulb Temperature Range Modifier Type
  ,                                       ! Dry-Bulb Temperature Range Modifier Schedule Name
  ASHRAETau,                              ! Solar Model Indicator
  ,                                       ! Beam Solar Day Schedule Name
  ,                                       ! Diffuse Solar Day Schedule Name
  0.461,                                  ! ASHRAE Taub {dimensionless}
  1.952;                                  ! ASHRAE Taud {dimensionless}

OS:ComponentData,
  {19c02d29-7fd5-4985-8ff1-083d5be8f71a}, ! Handle
  Component Data 1,                       ! Name
  {809d817d-5cc5-420e-a058-b73067c3e4f8}, ! UUID
  {cfbe2540-fdcf-46ec-902a-01257d2ef535}, ! Version UUID
  1366310941,                             ! Creation Timestamp
  1366310941,                             ! Version Timestamp
  {f8957fc2-37b3-4e25-8840-5d3b258e9c82}; ! Name of Object 1

