
OS:Version,
  {bf3bc4f2-a0e8-4972-b395-87a282125594}, ! Handle
  0.9.3;                                  ! Version Identifier

OS:SizingPeriod:DesignDay,
  {f2ee9232-a156-4b13-a4e9-444e86ec2445}, ! Handle
  Point Mugu Nf Ann Htg 99.6% Condns DB,  ! Name
  3.8,                                    ! Maximum Dry-Bulb Temperature {C}
  0,                                      ! Daily Dry-Bulb Temperature Range {deltaC}
  3.8,                                    ! Humidity Indicating Conditions at Maximum Dry-Bulb {BasedOnField A3}
  101289,                                 ! Barometric Pressure {Pa}
  2.1,                                    ! Wind Speed {m/s}
  20,                                     ! Wind Direction {deg}
  0,                                      ! Sky Clearness
  0,                                      ! Rain Indicator
  0,                                      ! Snow Indicator
  21,                                     ! Day of Month
  12,                                     ! Month
  WinterDesignDay,                        ! Day Type
  0,                                      ! Daylight Saving Time Indicator
  Wetbulb,                                ! Humidity Indicating Type
  ,                                       ! Humidity Indicating Day Schedule Name
  DefaultMultipliers,                     ! Dry-Bulb Temperature Range Modifier Type
  ,                                       ! Dry-Bulb Temperature Range Modifier Schedule Name
  ASHRAEClearSky;                         ! Solar Model Indicator

OS:ComponentData,
  {874805ce-68bc-4cff-8a35-a331ac414793}, ! Handle
  Component Data 1,                       ! Name
  {28d3ed88-1737-450c-ae2a-e27bdd3c42fa}, ! UUID
  {f8db5637-6e19-473e-ba63-d401d9865208}, ! Version UUID
  1366306538,                             ! Creation Timestamp
  1366306538,                             ! Version Timestamp
  {f2ee9232-a156-4b13-a4e9-444e86ec2445}; ! Name of Object 1

