
OS:Version,
  {946d2738-3b9d-47e1-b1f2-e37df22932f8}, ! Handle
  0.9.3;                                  ! Version Identifier

OS:SizingPeriod:DesignDay,
  {7c5fd534-32e3-4991-80fc-025b25e105be}, ! Handle
  Roswell Ann Clg 2% Condns Enth=>MDB,    ! Name
  29.7,                                   ! Maximum Dry-Bulb Temperature {C}
  14.1,                                   ! Daily Dry-Bulb Temperature Range {deltaC}
  63800,                                  ! Humidity Indicating Conditions at Maximum Dry-Bulb {BasedOnField A3}
  88660,                                  ! Barometric Pressure {Pa}
  5.3,                                    ! Wind Speed {m/s}
  140,                                    ! Wind Direction {deg}
  0,                                      ! Sky Clearness
  0,                                      ! Rain Indicator
  0,                                      ! Snow Indicator
  21,                                     ! Day of Month
  7,                                      ! Month
  SummerDesignDay,                        ! Day Type
  0,                                      ! Daylight Saving Time Indicator
  Enthalpy,                               ! Humidity Indicating Type
  ,                                       ! Humidity Indicating Day Schedule Name
  DefaultMultipliers,                     ! Dry-Bulb Temperature Range Modifier Type
  ,                                       ! Dry-Bulb Temperature Range Modifier Schedule Name
  ASHRAETau,                              ! Solar Model Indicator
  ,                                       ! Beam Solar Day Schedule Name
  ,                                       ! Diffuse Solar Day Schedule Name
  0.461,                                  ! ASHRAE Taub {dimensionless}
  1.916;                                  ! ASHRAE Taud {dimensionless}

OS:ComponentData,
  {53439c81-1701-4ec0-af1f-5c065ea27c90}, ! Handle
  Component Data 1,                       ! Name
  {42b4392b-2530-4f62-8ff0-5038fdbc1a1d}, ! UUID
  {5b89351a-55a5-49ad-9fb8-225eaa089b39}, ! Version UUID
  1366309425,                             ! Creation Timestamp
  1366309425,                             ! Version Timestamp
  {7c5fd534-32e3-4991-80fc-025b25e105be}; ! Name of Object 1

