
OS:Version,
  {824ded8f-4fa7-4756-a60d-a0a53b2a1d17}, ! Handle
  0.9.3;                                  ! Version Identifier

OS:SizingPeriod:DesignDay,
  {8241a0b9-02d1-417a-b62b-9dfd3947bc1d}, ! Handle
  Rochester Greater Rochester I Ann Htg 99.6% Condns DB, ! Name
  -16.6,                                  ! Maximum Dry-Bulb Temperature {C}
  0,                                      ! Daily Dry-Bulb Temperature Range {deltaC}
  -16.6,                                  ! Humidity Indicating Conditions at Maximum Dry-Bulb {BasedOnField A3}
  99146,                                  ! Barometric Pressure {Pa}
  3.9,                                    ! Wind Speed {m/s}
  240,                                    ! Wind Direction {deg}
  0,                                      ! Sky Clearness
  0,                                      ! Rain Indicator
  0,                                      ! Snow Indicator
  21,                                     ! Day of Month
  1,                                      ! Month
  WinterDesignDay,                        ! Day Type
  0,                                      ! Daylight Saving Time Indicator
  Wetbulb,                                ! Humidity Indicating Type
  ,                                       ! Humidity Indicating Day Schedule Name
  DefaultMultipliers,                     ! Dry-Bulb Temperature Range Modifier Type
  ,                                       ! Dry-Bulb Temperature Range Modifier Schedule Name
  ASHRAEClearSky;                         ! Solar Model Indicator

OS:ComponentData,
  {96904d52-50d3-4a52-8d91-a70fbbfdfe63}, ! Handle
  Component Data 1,                       ! Name
  {f6bdee53-f036-4336-8eb0-842074036b8c}, ! UUID
  {40f51fbe-3b5a-4a1d-ad17-1e3a60b6572f}, ! Version UUID
  1366309717,                             ! Creation Timestamp
  1366309717,                             ! Version Timestamp
  {8241a0b9-02d1-417a-b62b-9dfd3947bc1d}; ! Name of Object 1

