
OS:Version,
  {60153347-8f58-4307-a1bb-799a1fbea9cb}, ! Handle
  0.9.3;                                  ! Version Identifier

OS:SizingPeriod:DesignDay,
  {b99f83fb-9ae3-4389-96b9-d4a27ac2d554}, ! Handle
  Mountain View/Moffet N Ann Clg 1% Condns Enth=>MDB, ! Name
  26.7,                                   ! Maximum Dry-Bulb Temperature {C}
  9.5,                                    ! Daily Dry-Bulb Temperature Range {deltaC}
  55300,                                  ! Humidity Indicating Conditions at Maximum Dry-Bulb {BasedOnField A3}
  101181,                                 ! Barometric Pressure {Pa}
  3.9,                                    ! Wind Speed {m/s}
  340,                                    ! Wind Direction {deg}
  0,                                      ! Sky Clearness
  0,                                      ! Rain Indicator
  0,                                      ! Snow Indicator
  21,                                     ! Day of Month
  7,                                      ! Month
  SummerDesignDay,                        ! Day Type
  0,                                      ! Daylight Saving Time Indicator
  Enthalpy,                               ! Humidity Indicating Type
  ,                                       ! Humidity Indicating Day Schedule Name
  DefaultMultipliers,                     ! Dry-Bulb Temperature Range Modifier Type
  ,                                       ! Dry-Bulb Temperature Range Modifier Schedule Name
  ASHRAETau,                              ! Solar Model Indicator
  ,                                       ! Beam Solar Day Schedule Name
  ,                                       ! Diffuse Solar Day Schedule Name
  0.378,                                  ! ASHRAE Taub {dimensionless}
  2.37;                                   ! ASHRAE Taud {dimensionless}

OS:ComponentData,
  {4a600e65-c6b2-4f9b-b059-3d68f042b774}, ! Handle
  Component Data 1,                       ! Name
  {0218e24a-33f4-4f95-ad0f-037341d6936f}, ! UUID
  {56900d44-1b67-4eee-a203-3b0e6a153553}, ! Version UUID
  1366306507,                             ! Creation Timestamp
  1366306507,                             ! Version Timestamp
  {b99f83fb-9ae3-4389-96b9-d4a27ac2d554}; ! Name of Object 1

