
OS:Version,
  {bb8d72f5-e3ca-4b46-b2de-f7f3544673de}, ! Handle
  0.9.3;                                  ! Version Identifier

OS:SizingPeriod:DesignDay,
  {add49dc4-a77c-4676-85ad-c1c058f819ab}, ! Handle
  Panama City Bay Co Ann Clg 2% Condns WB=>MDB, ! Name
  29.9,                                   ! Maximum Dry-Bulb Temperature {C}
  7.6,                                    ! Daily Dry-Bulb Temperature Range {deltaC}
  26.3,                                   ! Humidity Indicating Conditions at Maximum Dry-Bulb {BasedOnField A3}
  101253,                                 ! Barometric Pressure {Pa}
  4.1,                                    ! Wind Speed {m/s}
  260,                                    ! Wind Direction {deg}
  0,                                      ! Sky Clearness
  0,                                      ! Rain Indicator
  0,                                      ! Snow Indicator
  21,                                     ! Day of Month
  7,                                      ! Month
  SummerDesignDay,                        ! Day Type
  0,                                      ! Daylight Saving Time Indicator
  Wetbulb,                                ! Humidity Indicating Type
  ,                                       ! Humidity Indicating Day Schedule Name
  DefaultMultipliers,                     ! Dry-Bulb Temperature Range Modifier Type
  ,                                       ! Dry-Bulb Temperature Range Modifier Schedule Name
  ASHRAETau,                              ! Solar Model Indicator
  ,                                       ! Beam Solar Day Schedule Name
  ,                                       ! Diffuse Solar Day Schedule Name
  0.522,                                  ! ASHRAE Taub {dimensionless}
  1.923;                                  ! ASHRAE Taud {dimensionless}

OS:ComponentData,
  {3f53d14b-0b7c-49f9-a646-2b24e82b6558}, ! Handle
  Component Data 1,                       ! Name
  {cb28e5ad-265a-401b-876f-7f7c0d2a7e5a}, ! UUID
  {3fe17d9a-9374-4126-843b-ecd907538334}, ! Version UUID
  1366306899,                             ! Creation Timestamp
  1366306899,                             ! Version Timestamp
  {add49dc4-a77c-4676-85ad-c1c058f819ab}; ! Name of Object 1

