
OS:Version,
  {cbebaf46-f13b-4cb0-afff-8f22c38c3cda}, ! Handle
  0.9.3;                                  ! Version Identifier

OS:SizingPeriod:DesignDay,
  {941e5fe0-74f3-4b46-81f2-366b21e8e748}, ! Handle
  Yakima Air Terminal Ann Hum_n 99% Condns DP=>MCDB, ! Name
  -9.3,                                   ! Maximum Dry-Bulb Temperature {C}
  0,                                      ! Daily Dry-Bulb Temperature Range {deltaC}
  -14.8,                                  ! Humidity Indicating Conditions at Maximum Dry-Bulb {BasedOnField A3}
  97493,                                  ! Barometric Pressure {Pa}
  2.4,                                    ! Wind Speed {m/s}
  280,                                    ! Wind Direction {deg}
  0,                                      ! Sky Clearness
  0,                                      ! Rain Indicator
  0,                                      ! Snow Indicator
  21,                                     ! Day of Month
  12,                                     ! Month
  WinterDesignDay,                        ! Day Type
  0,                                      ! Daylight Saving Time Indicator
  Dewpoint,                               ! Humidity Indicating Type
  ,                                       ! Humidity Indicating Day Schedule Name
  DefaultMultipliers,                     ! Dry-Bulb Temperature Range Modifier Type
  ,                                       ! Dry-Bulb Temperature Range Modifier Schedule Name
  ASHRAEClearSky;                         ! Solar Model Indicator

OS:ComponentData,
  {c23e10b2-1761-49de-b41e-6753df392535}, ! Handle
  Component Data 1,                       ! Name
  {3564772d-266c-40f9-aee4-a1afc2a88d7c}, ! UUID
  {7d8fcb95-f80e-444e-8939-b189dc4d458e}, ! Version UUID
  1366311452,                             ! Creation Timestamp
  1366311452,                             ! Version Timestamp
  {941e5fe0-74f3-4b46-81f2-366b21e8e748}; ! Name of Object 1

