
OS:Version,
  {85ab8236-d1f5-4457-9d46-dcc62557f4e7}, ! Handle
  0.9.3;                                  ! Version Identifier

OS:SizingPeriod:DesignDay,
  {8fa9c6be-b058-48c3-97ff-a83c348b8295}, ! Handle
  Phillips Price Co Ann Clg 2% Condns DP=>MDB, ! Name
  23.9,                                   ! Maximum Dry-Bulb Temperature {C}
  11.7,                                   ! Daily Dry-Bulb Temperature Range {deltaC}
  20,                                     ! Humidity Indicating Conditions at Maximum Dry-Bulb {BasedOnField A3}
  96046,                                  ! Barometric Pressure {Pa}
  4.1,                                    ! Wind Speed {m/s}
  200,                                    ! Wind Direction {deg}
  0,                                      ! Sky Clearness
  0,                                      ! Rain Indicator
  0,                                      ! Snow Indicator
  21,                                     ! Day of Month
  7,                                      ! Month
  SummerDesignDay,                        ! Day Type
  0,                                      ! Daylight Saving Time Indicator
  Dewpoint,                               ! Humidity Indicating Type
  ,                                       ! Humidity Indicating Day Schedule Name
  DefaultMultipliers,                     ! Dry-Bulb Temperature Range Modifier Type
  ,                                       ! Dry-Bulb Temperature Range Modifier Schedule Name
  ASHRAETau,                              ! Solar Model Indicator
  ,                                       ! Beam Solar Day Schedule Name
  ,                                       ! Diffuse Solar Day Schedule Name
  0.4,                                    ! ASHRAE Taub {dimensionless}
  2.208;                                  ! ASHRAE Taud {dimensionless}

OS:ComponentData,
  {2e7bf88f-d56b-4770-b10e-0390e0a8f7eb}, ! Handle
  Component Data 1,                       ! Name
  {8abca6b8-1360-4347-9b78-3aeaea95d447}, ! UUID
  {509eae7e-cc0a-4336-b1a2-cac14184859d}, ! Version UUID
  1366311577,                             ! Creation Timestamp
  1366311577,                             ! Version Timestamp
  {8fa9c6be-b058-48c3-97ff-a83c348b8295}; ! Name of Object 1

