
OS:Version,
  {6f68a971-ff5b-4d55-9553-1d34e2452feb}, ! Handle
  0.9.3;                                  ! Version Identifier

OS:SizingPeriod:DesignDay,
  {e43b1e21-16ec-40eb-98d3-042e09b93aa2}, ! Handle
  Whiting Field Naas Ann Clg .4% Condns DB=>MWB, ! Name
  34.8,                                   ! Maximum Dry-Bulb Temperature {C}
  10,                                     ! Daily Dry-Bulb Temperature Range {deltaC}
  25.3,                                   ! Humidity Indicating Conditions at Maximum Dry-Bulb {BasedOnField A3}
  100678,                                 ! Barometric Pressure {Pa}
  2.7,                                    ! Wind Speed {m/s}
  330,                                    ! Wind Direction {deg}
  0,                                      ! Sky Clearness
  0,                                      ! Rain Indicator
  0,                                      ! Snow Indicator
  21,                                     ! Day of Month
  7,                                      ! Month
  SummerDesignDay,                        ! Day Type
  0,                                      ! Daylight Saving Time Indicator
  Wetbulb,                                ! Humidity Indicating Type
  ,                                       ! Humidity Indicating Day Schedule Name
  DefaultMultipliers,                     ! Dry-Bulb Temperature Range Modifier Type
  ,                                       ! Dry-Bulb Temperature Range Modifier Schedule Name
  ASHRAETau,                              ! Solar Model Indicator
  ,                                       ! Beam Solar Day Schedule Name
  ,                                       ! Diffuse Solar Day Schedule Name
  0.535,                                  ! ASHRAE Taub {dimensionless}
  1.87;                                   ! ASHRAE Taud {dimensionless}

OS:ComponentData,
  {ef96d5d0-7054-4d20-88ee-c3f297b601be}, ! Handle
  Component Data 1,                       ! Name
  {fbed858f-8c49-4a7c-9686-a79f47b7e996}, ! UUID
  {09bc0645-0111-4c9c-a36c-b040fd8a05e0}, ! Version UUID
  1366306958,                             ! Creation Timestamp
  1366306958,                             ! Version Timestamp
  {e43b1e21-16ec-40eb-98d3-042e09b93aa2}; ! Name of Object 1

