
OS:Version,
  {32368b6e-5835-4350-a52f-2b689240776a}, ! Handle
  0.9.3;                                  ! Version Identifier

OS:SizingPeriod:DesignDay,
  {2a9fd8bf-719a-4d87-ae69-755d667ef736}, ! Handle
  Washington Ann Clg .4% Condns WB=>MDB,  ! Name
  32.1,                                   ! Maximum Dry-Bulb Temperature {C}
  10.8,                                   ! Daily Dry-Bulb Temperature Range {deltaC}
  28,                                     ! Humidity Indicating Conditions at Maximum Dry-Bulb {BasedOnField A3}
  98592,                                  ! Barometric Pressure {Pa}
  4.4,                                    ! Wind Speed {m/s}
  200,                                    ! Wind Direction {deg}
  0,                                      ! Sky Clearness
  0,                                      ! Rain Indicator
  0,                                      ! Snow Indicator
  21,                                     ! Day of Month
  7,                                      ! Month
  SummerDesignDay,                        ! Day Type
  0,                                      ! Daylight Saving Time Indicator
  Wetbulb,                                ! Humidity Indicating Type
  ,                                       ! Humidity Indicating Day Schedule Name
  DefaultMultipliers,                     ! Dry-Bulb Temperature Range Modifier Type
  ,                                       ! Dry-Bulb Temperature Range Modifier Schedule Name
  ASHRAETau,                              ! Solar Model Indicator
  ,                                       ! Beam Solar Day Schedule Name
  ,                                       ! Diffuse Solar Day Schedule Name
  0.446,                                  ! ASHRAE Taub {dimensionless}
  2.081;                                  ! ASHRAE Taud {dimensionless}

OS:ComponentData,
  {6bd2a29c-e847-4e0d-bd7b-849de78f0572}, ! Handle
  Component Data 1,                       ! Name
  {108e9b6e-1158-416d-a8c4-c4e56f342f89}, ! UUID
  {c14e0819-018a-43e3-8e5d-4b003c60f9a9}, ! Version UUID
  1366307248,                             ! Creation Timestamp
  1366307248,                             ! Version Timestamp
  {2a9fd8bf-719a-4d87-ae69-755d667ef736}; ! Name of Object 1

