
OS:Version,
  {c6a866e4-2ed5-4e7e-8c9e-bc78f764218b}, ! Handle
  0.9.3;                                  ! Version Identifier

OS:SizingPeriod:DesignDay,
  {a7980b34-f76e-4c33-8185-8d7d9280fec0}, ! Handle
  Port Arthur Jefferson County Ann Htg Wind 99.6% Condns WS=>MCDB, ! Name
  13.8,                                   ! Maximum Dry-Bulb Temperature {C}
  0,                                      ! Daily Dry-Bulb Temperature Range {deltaC}
  13.8,                                   ! Humidity Indicating Conditions at Maximum Dry-Bulb {BasedOnField A3}
  101265,                                 ! Barometric Pressure {Pa}
  11.1,                                   ! Wind Speed {m/s}
  0,                                      ! Wind Direction {deg}
  0,                                      ! Sky Clearness
  0,                                      ! Rain Indicator
  0,                                      ! Snow Indicator
  21,                                     ! Day of Month
  1,                                      ! Month
  WinterDesignDay,                        ! Day Type
  0,                                      ! Daylight Saving Time Indicator
  Wetbulb,                                ! Humidity Indicating Type
  ,                                       ! Humidity Indicating Day Schedule Name
  DefaultMultipliers,                     ! Dry-Bulb Temperature Range Modifier Type
  ,                                       ! Dry-Bulb Temperature Range Modifier Schedule Name
  ASHRAEClearSky;                         ! Solar Model Indicator

OS:ComponentData,
  {5fa59dc0-bc3c-4a23-a0c7-e36cbfcefe5f}, ! Handle
  Component Data 1,                       ! Name
  {e67047a7-331d-4c3f-a662-b8327167e92d}, ! UUID
  {ecd6da32-9df9-4781-9a79-94b251fba711}, ! Version UUID
  1366310852,                             ! Creation Timestamp
  1366310852,                             ! Version Timestamp
  {a7980b34-f76e-4c33-8185-8d7d9280fec0}; ! Name of Object 1

