
OS:Version,
  {84fb96ea-cd4b-44cc-bd4a-2f2f4dcb11d1}, ! Handle
  0.9.3;                                  ! Version Identifier

OS:SizingPeriod:DesignDay,
  {46bba170-5ef9-41be-95d2-018ade6f2f49}, ! Handle
  Truckee Tahoe Ann Clg .4% Condns DP=>MDB, ! Name
  18.7,                                   ! Maximum Dry-Bulb Temperature {C}
  22.7,                                   ! Daily Dry-Bulb Temperature Range {deltaC}
  13,                                     ! Humidity Indicating Conditions at Maximum Dry-Bulb {BasedOnField A3}
  81509,                                  ! Barometric Pressure {Pa}
  4.3,                                    ! Wind Speed {m/s}
  230,                                    ! Wind Direction {deg}
  0,                                      ! Sky Clearness
  0,                                      ! Rain Indicator
  0,                                      ! Snow Indicator
  21,                                     ! Day of Month
  7,                                      ! Month
  SummerDesignDay,                        ! Day Type
  0,                                      ! Daylight Saving Time Indicator
  Dewpoint,                               ! Humidity Indicating Type
  ,                                       ! Humidity Indicating Day Schedule Name
  DefaultMultipliers,                     ! Dry-Bulb Temperature Range Modifier Type
  ,                                       ! Dry-Bulb Temperature Range Modifier Schedule Name
  ASHRAETau,                              ! Solar Model Indicator
  ,                                       ! Beam Solar Day Schedule Name
  ,                                       ! Diffuse Solar Day Schedule Name
  0.344,                                  ! ASHRAE Taub {dimensionless}
  2.382;                                  ! ASHRAE Taud {dimensionless}

OS:ComponentData,
  {018be65b-fcb6-437b-9bf2-936911ed59c7}, ! Handle
  Component Data 1,                       ! Name
  {516d390a-4809-41de-9e86-231f84da9b07}, ! UUID
  {04a2072e-bd67-4708-8f93-354ab21a2ecf}, ! Version UUID
  1366306625,                             ! Creation Timestamp
  1366306625,                             ! Version Timestamp
  {46bba170-5ef9-41be-95d2-018ade6f2f49}; ! Name of Object 1

