
OS:Version,
  {0dddd893-040d-450b-afa5-6d1d3cfd2419}, ! Handle
  0.9.3;                                  ! Version Identifier

OS:SizingPeriod:DesignDay,
  {bbb2141f-ff2a-4f43-8415-fa9382986dae}, ! Handle
  Texarkana Webb Field Ann Hum_n 99% Condns DP=>MCDB, ! Name
  -0.2,                                   ! Maximum Dry-Bulb Temperature {C}
  0,                                      ! Daily Dry-Bulb Temperature Range {deltaC}
  -10.7,                                  ! Humidity Indicating Conditions at Maximum Dry-Bulb {BasedOnField A3}
  100011,                                 ! Barometric Pressure {Pa}
  3.5,                                    ! Wind Speed {m/s}
  30,                                     ! Wind Direction {deg}
  0,                                      ! Sky Clearness
  0,                                      ! Rain Indicator
  0,                                      ! Snow Indicator
  21,                                     ! Day of Month
  1,                                      ! Month
  WinterDesignDay,                        ! Day Type
  0,                                      ! Daylight Saving Time Indicator
  Dewpoint,                               ! Humidity Indicating Type
  ,                                       ! Humidity Indicating Day Schedule Name
  DefaultMultipliers,                     ! Dry-Bulb Temperature Range Modifier Type
  ,                                       ! Dry-Bulb Temperature Range Modifier Schedule Name
  ASHRAEClearSky;                         ! Solar Model Indicator

OS:ComponentData,
  {31e772ae-4d70-4db2-a986-ff53ea2fac1e}, ! Handle
  Component Data 1,                       ! Name
  {6af94546-7164-4f5a-8183-454396d34a84}, ! UUID
  {3a416192-8581-4bd1-8afd-453ee22ef468}, ! Version UUID
  1366306254,                             ! Creation Timestamp
  1366306254,                             ! Version Timestamp
  {bbb2141f-ff2a-4f43-8415-fa9382986dae}; ! Name of Object 1

