
OS:Version,
  {80fe5afb-d24f-44cf-8089-01c6a9a74044}, ! Handle
  0.9.3;                                  ! Version Identifier

OS:SizingPeriod:DesignDay,
  {01db5430-81f6-4aa8-a844-9b6f1eb314ca}, ! Handle
  Tulsa Ann Clg 1% Condns Enth=>MDB,      ! Name
  33.3,                                   ! Maximum Dry-Bulb Temperature {C}
  10.5,                                   ! Daily Dry-Bulb Temperature Range {deltaC}
  79800,                                  ! Humidity Indicating Conditions at Maximum Dry-Bulb {BasedOnField A3}
  98875,                                  ! Barometric Pressure {Pa}
  4.9,                                    ! Wind Speed {m/s}
  190,                                    ! Wind Direction {deg}
  0,                                      ! Sky Clearness
  0,                                      ! Rain Indicator
  0,                                      ! Snow Indicator
  21,                                     ! Day of Month
  7,                                      ! Month
  SummerDesignDay,                        ! Day Type
  0,                                      ! Daylight Saving Time Indicator
  Enthalpy,                               ! Humidity Indicating Type
  ,                                       ! Humidity Indicating Day Schedule Name
  DefaultMultipliers,                     ! Dry-Bulb Temperature Range Modifier Type
  ,                                       ! Dry-Bulb Temperature Range Modifier Schedule Name
  ASHRAETau,                              ! Solar Model Indicator
  ,                                       ! Beam Solar Day Schedule Name
  ,                                       ! Diffuse Solar Day Schedule Name
  0.453,                                  ! ASHRAE Taub {dimensionless}
  2.105;                                  ! ASHRAE Taud {dimensionless}

OS:ComponentData,
  {2ce5c842-dc86-4f31-9cdb-aaed1f056210}, ! Handle
  Component Data 1,                       ! Name
  {1b728d05-08b7-4b8a-a6b6-4410179f7c1d}, ! UUID
  {1d8e1a5e-f3f9-4731-ae49-1390aba0eb1c}, ! Version UUID
  1366309955,                             ! Creation Timestamp
  1366309955,                             ! Version Timestamp
  {01db5430-81f6-4aa8-a844-9b6f1eb314ca}; ! Name of Object 1

