
OS:Version,
  {951f6e0a-9c11-42d1-8e3a-ea9c8b48aeb5}, ! Handle
  0.9.3;                                  ! Version Identifier

OS:SizingPeriod:DesignDay,
  {034e1c0d-d5ca-4d98-8992-e924560a567a}, ! Handle
  Macon Middle Ga Regional Ap Ann Clg 2% Condns Enth=>MDB, ! Name
  30.8,                                   ! Maximum Dry-Bulb Temperature {C}
  11.1,                                   ! Daily Dry-Bulb Temperature Range {deltaC}
  76900,                                  ! Humidity Indicating Conditions at Maximum Dry-Bulb {BasedOnField A3}
  100034,                                 ! Barometric Pressure {Pa}
  3.6,                                    ! Wind Speed {m/s}
  300,                                    ! Wind Direction {deg}
  0,                                      ! Sky Clearness
  0,                                      ! Rain Indicator
  0,                                      ! Snow Indicator
  21,                                     ! Day of Month
  7,                                      ! Month
  SummerDesignDay,                        ! Day Type
  0,                                      ! Daylight Saving Time Indicator
  Enthalpy,                               ! Humidity Indicating Type
  ,                                       ! Humidity Indicating Day Schedule Name
  DefaultMultipliers,                     ! Dry-Bulb Temperature Range Modifier Type
  ,                                       ! Dry-Bulb Temperature Range Modifier Schedule Name
  ASHRAETau,                              ! Solar Model Indicator
  ,                                       ! Beam Solar Day Schedule Name
  ,                                       ! Diffuse Solar Day Schedule Name
  0.549,                                  ! ASHRAE Taub {dimensionless}
  1.812;                                  ! ASHRAE Taud {dimensionless}

OS:ComponentData,
  {04ac35cb-f4d1-4f7f-97d2-1c051d507344}, ! Handle
  Component Data 1,                       ! Name
  {c7c50d4f-f2c7-45c5-8fcf-db1404e13dd2}, ! UUID
  {927fa34d-76d5-48f0-91ea-d3d6c2497cb6}, ! Version UUID
  1366307025,                             ! Creation Timestamp
  1366307025,                             ! Version Timestamp
  {034e1c0d-d5ca-4d98-8992-e924560a567a}; ! Name of Object 1

