
OS:Version,
  {bac8f581-fdf4-46bb-9761-961eff9a5424}, ! Handle
  0.9.3;                                  ! Version Identifier

OS:SizingPeriod:DesignDay,
  {e146b165-9f5e-485a-840a-2ee49d535713}, ! Handle
  Moody Afb Valdosta Ann Clg 2% Condns DB=>MWB, ! Name
  33.4,                                   ! Maximum Dry-Bulb Temperature {C}
  10,                                     ! Daily Dry-Bulb Temperature Range {deltaC}
  24.4,                                   ! Humidity Indicating Conditions at Maximum Dry-Bulb {BasedOnField A3}
  100475,                                 ! Barometric Pressure {Pa}
  2.6,                                    ! Wind Speed {m/s}
  300,                                    ! Wind Direction {deg}
  0,                                      ! Sky Clearness
  0,                                      ! Rain Indicator
  0,                                      ! Snow Indicator
  21,                                     ! Day of Month
  7,                                      ! Month
  SummerDesignDay,                        ! Day Type
  0,                                      ! Daylight Saving Time Indicator
  Wetbulb,                                ! Humidity Indicating Type
  ,                                       ! Humidity Indicating Day Schedule Name
  DefaultMultipliers,                     ! Dry-Bulb Temperature Range Modifier Type
  ,                                       ! Dry-Bulb Temperature Range Modifier Schedule Name
  ASHRAETau,                              ! Solar Model Indicator
  ,                                       ! Beam Solar Day Schedule Name
  ,                                       ! Diffuse Solar Day Schedule Name
  0.545,                                  ! ASHRAE Taub {dimensionless}
  1.836;                                  ! ASHRAE Taud {dimensionless}

OS:ComponentData,
  {4ffd4dbc-1bda-4458-8cce-a6a892a6d4bf}, ! Handle
  Component Data 1,                       ! Name
  {6858d2b9-8348-477a-82ab-5e53c7021937}, ! UUID
  {f6fd95a1-32bf-49ec-9989-fcec6485fa23}, ! Version UUID
  1366307060,                             ! Creation Timestamp
  1366307060,                             ! Version Timestamp
  {e146b165-9f5e-485a-840a-2ee49d535713}; ! Name of Object 1

