
OS:Version,
  {da5fbfa6-cdd9-48b1-8bf4-a2d3e89c787b}, ! Handle
  0.9.3;                                  ! Version Identifier

OS:SizingPeriod:DesignDay,
  {b3354ccc-9a46-499a-93cc-0d0029f87860}, ! Handle
  Youngstown Regional Airport Ann Hum_n 99.6% Condns DP=>MCDB, ! Name
  -15.7,                                  ! Maximum Dry-Bulb Temperature {C}
  0,                                      ! Daily Dry-Bulb Temperature Range {deltaC}
  -20.5,                                  ! Humidity Indicating Conditions at Maximum Dry-Bulb {BasedOnField A3}
  97074,                                  ! Barometric Pressure {Pa}
  4,                                      ! Wind Speed {m/s}
  260,                                    ! Wind Direction {deg}
  0,                                      ! Sky Clearness
  0,                                      ! Rain Indicator
  0,                                      ! Snow Indicator
  21,                                     ! Day of Month
  1,                                      ! Month
  WinterDesignDay,                        ! Day Type
  0,                                      ! Daylight Saving Time Indicator
  Dewpoint,                               ! Humidity Indicating Type
  ,                                       ! Humidity Indicating Day Schedule Name
  DefaultMultipliers,                     ! Dry-Bulb Temperature Range Modifier Type
  ,                                       ! Dry-Bulb Temperature Range Modifier Schedule Name
  ASHRAEClearSky;                         ! Solar Model Indicator

OS:ComponentData,
  {d9f60993-26dc-4425-bc73-22fac92507b4}, ! Handle
  Component Data 1,                       ! Name
  {0f9be4ea-9b89-429c-8546-dd649e42c70c}, ! UUID
  {0da3450c-e540-4792-9452-5a8b259f2604}, ! Version UUID
  1366309869,                             ! Creation Timestamp
  1366309869,                             ! Version Timestamp
  {b3354ccc-9a46-499a-93cc-0d0029f87860}; ! Name of Object 1

