
OS:Version,
  {a019b0fd-75a9-4c11-bb9c-b363c7e2703b}, ! Handle
  0.9.3;                                  ! Version Identifier

OS:SizingPeriod:DesignDay,
  {aba90979-569b-41aa-8421-3c9fbd24488d}, ! Handle
  Patuxent River NAS Ann Clg 2% Condns WB=>MDB, ! Name
  29.2,                                   ! Maximum Dry-Bulb Temperature {C}
  8.6,                                    ! Daily Dry-Bulb Temperature Range {deltaC}
  24.7,                                   ! Humidity Indicating Conditions at Maximum Dry-Bulb {BasedOnField A3}
  101157,                                 ! Barometric Pressure {Pa}
  3.9,                                    ! Wind Speed {m/s}
  250,                                    ! Wind Direction {deg}
  0,                                      ! Sky Clearness
  0,                                      ! Rain Indicator
  0,                                      ! Snow Indicator
  21,                                     ! Day of Month
  7,                                      ! Month
  SummerDesignDay,                        ! Day Type
  0,                                      ! Daylight Saving Time Indicator
  Wetbulb,                                ! Humidity Indicating Type
  ,                                       ! Humidity Indicating Day Schedule Name
  DefaultMultipliers,                     ! Dry-Bulb Temperature Range Modifier Type
  ,                                       ! Dry-Bulb Temperature Range Modifier Schedule Name
  ASHRAETau,                              ! Solar Model Indicator
  ,                                       ! Beam Solar Day Schedule Name
  ,                                       ! Diffuse Solar Day Schedule Name
  0.592,                                  ! ASHRAE Taub {dimensionless}
  1.683;                                  ! ASHRAE Taud {dimensionless}

OS:ComponentData,
  {b7ba1f20-d7fd-4bc8-8f5e-73b1e129d500}, ! Handle
  Component Data 1,                       ! Name
  {78f635bb-3157-4776-9016-e99bef14c782}, ! UUID
  {dbfb1689-70b9-46fb-b809-363f72ea6ce5}, ! Version UUID
  1366307854,                             ! Creation Timestamp
  1366307854,                             ! Version Timestamp
  {aba90979-569b-41aa-8421-3c9fbd24488d}; ! Name of Object 1

