
OS:Version,
  {280f5bc6-2d4c-46db-bfa2-703a35ee6966}, ! Handle
  0.9.3;                                  ! Version Identifier

OS:SizingPeriod:DesignDay,
  {3da21247-122e-49e3-be40-15a0be21d51a}, ! Handle
  Newton  Awos Ann Htg Wind 99.6% Condns WS=>MCDB, ! Name
  3.3,                                    ! Maximum Dry-Bulb Temperature {C}
  0,                                      ! Daily Dry-Bulb Temperature Range {deltaC}
  3.3,                                    ! Humidity Indicating Conditions at Maximum Dry-Bulb {BasedOnField A3}
  95839,                                  ! Barometric Pressure {Pa}
  14.4,                                   ! Wind Speed {m/s}
  0,                                      ! Wind Direction {deg}
  0,                                      ! Sky Clearness
  0,                                      ! Rain Indicator
  0,                                      ! Snow Indicator
  21,                                     ! Day of Month
  1,                                      ! Month
  WinterDesignDay,                        ! Day Type
  0,                                      ! Daylight Saving Time Indicator
  Wetbulb,                                ! Humidity Indicating Type
  ,                                       ! Humidity Indicating Day Schedule Name
  DefaultMultipliers,                     ! Dry-Bulb Temperature Range Modifier Type
  ,                                       ! Dry-Bulb Temperature Range Modifier Schedule Name
  ASHRAEClearSky;                         ! Solar Model Indicator

OS:ComponentData,
  {25a88f55-54dc-4838-b98d-c95f116f1e7d}, ! Handle
  Component Data 1,                       ! Name
  {5cd4cd9a-4b68-4377-b399-170af60fbeb3}, ! UUID
  {39205a1c-5fb5-4865-9ead-79caf630fcf9}, ! Version UUID
  1366307562,                             ! Creation Timestamp
  1366307562,                             ! Version Timestamp
  {3da21247-122e-49e3-be40-15a0be21d51a}; ! Name of Object 1

