
OS:Version,
  {abff3cfc-cc0e-4cb6-bc2e-519e4e51df91}, ! Handle
  0.9.3;                                  ! Version Identifier

OS:SizingPeriod:DesignDay,
  {137c8c6d-bf61-43d0-bc11-94db0e425b82}, ! Handle
  Sierra Blanca Rgnl Ann Hum_n 99.6% Condns DP=>MCDB, ! Name
  3.7,                                    ! Maximum Dry-Bulb Temperature {C}
  0,                                      ! Daily Dry-Bulb Temperature Range {deltaC}
  -22.7,                                  ! Humidity Indicating Conditions at Maximum Dry-Bulb {BasedOnField A3}
  78728,                                  ! Barometric Pressure {Pa}
  2.4,                                    ! Wind Speed {m/s}
  130,                                    ! Wind Direction {deg}
  0,                                      ! Sky Clearness
  0,                                      ! Rain Indicator
  0,                                      ! Snow Indicator
  21,                                     ! Day of Month
  12,                                     ! Month
  WinterDesignDay,                        ! Day Type
  0,                                      ! Daylight Saving Time Indicator
  Dewpoint,                               ! Humidity Indicating Type
  ,                                       ! Humidity Indicating Day Schedule Name
  DefaultMultipliers,                     ! Dry-Bulb Temperature Range Modifier Type
  ,                                       ! Dry-Bulb Temperature Range Modifier Schedule Name
  ASHRAEClearSky;                         ! Solar Model Indicator

OS:ComponentData,
  {567ae787-2ee0-474b-999f-f3297059171b}, ! Handle
  Component Data 1,                       ! Name
  {44a32c86-8f35-4df3-a909-c8c1f1361498}, ! UUID
  {8232872a-399e-4251-bfca-177d6a1f62b4}, ! Version UUID
  1366309432,                             ! Creation Timestamp
  1366309432,                             ! Version Timestamp
  {137c8c6d-bf61-43d0-bc11-94db0e425b82}; ! Name of Object 1

