
OS:Version,
  {781ef2f8-f4a5-43d1-a666-edec62c627f8}, ! Handle
  0.9.3;                                  ! Version Identifier

OS:SizingPeriod:DesignDay,
  {7e6e0366-f10e-4bc3-ad1f-76d59df4ca9c}, ! Handle
  ROANOKE Ann Htg 99.6% Condns DB,        ! Name
  -9.9,                                   ! Maximum Dry-Bulb Temperature {C}
  0,                                      ! Daily Dry-Bulb Temperature Range {deltaC}
  -9.9,                                   ! Humidity Indicating Conditions at Maximum Dry-Bulb {BasedOnField A3}
  97098,                                  ! Barometric Pressure {Pa}
  3.9,                                    ! Wind Speed {m/s}
  300,                                    ! Wind Direction {deg}
  0,                                      ! Sky Clearness
  0,                                      ! Rain Indicator
  0,                                      ! Snow Indicator
  21,                                     ! Day of Month
  1,                                      ! Month
  WinterDesignDay,                        ! Day Type
  0,                                      ! Daylight Saving Time Indicator
  Wetbulb,                                ! Humidity Indicating Type
  ,                                       ! Humidity Indicating Day Schedule Name
  DefaultMultipliers,                     ! Dry-Bulb Temperature Range Modifier Type
  ,                                       ! Dry-Bulb Temperature Range Modifier Schedule Name
  ASHRAEClearSky;                         ! Solar Model Indicator

OS:ComponentData,
  {9245a090-12fe-4def-8ce0-939f829e6b4b}, ! Handle
  Component Data 1,                       ! Name
  {95102413-2b0c-47cc-906f-63953cbb58e6}, ! UUID
  {b27d7760-e8d6-4c12-a241-f2ba735230f5}, ! Version UUID
  1366311178,                             ! Creation Timestamp
  1366311178,                             ! Version Timestamp
  {7e6e0366-f10e-4bc3-ad1f-76d59df4ca9c}; ! Name of Object 1

