
OS:Version,
  {1956d27a-bea7-44f4-9312-14f7afa03a45}, ! Handle
  0.9.3;                                  ! Version Identifier

OS:SizingPeriod:DesignDay,
  {26ccc6ea-d848-4398-839a-996bec38b33f}, ! Handle
  Valparaiso Hurlburt Ann Hum_n 99% Condns DP=>MCDB, ! Name
  5.4,                                    ! Maximum Dry-Bulb Temperature {C}
  0,                                      ! Daily Dry-Bulb Temperature Range {deltaC}
  -7.6,                                   ! Humidity Indicating Conditions at Maximum Dry-Bulb {BasedOnField A3}
  101181,                                 ! Barometric Pressure {Pa}
  3.3,                                    ! Wind Speed {m/s}
  0,                                      ! Wind Direction {deg}
  0,                                      ! Sky Clearness
  0,                                      ! Rain Indicator
  0,                                      ! Snow Indicator
  21,                                     ! Day of Month
  1,                                      ! Month
  WinterDesignDay,                        ! Day Type
  0,                                      ! Daylight Saving Time Indicator
  Dewpoint,                               ! Humidity Indicating Type
  ,                                       ! Humidity Indicating Day Schedule Name
  DefaultMultipliers,                     ! Dry-Bulb Temperature Range Modifier Type
  ,                                       ! Dry-Bulb Temperature Range Modifier Schedule Name
  ASHRAEClearSky;                         ! Solar Model Indicator

OS:ComponentData,
  {908edee2-88d8-4981-8f17-599ca0a9202d}, ! Handle
  Component Data 1,                       ! Name
  {a9e858d7-fb1b-4245-afb3-cb8daa71b479}, ! UUID
  {b5deae76-13cd-4644-92e7-bb30764ba66d}, ! Version UUID
  1366306806,                             ! Creation Timestamp
  1366306806,                             ! Version Timestamp
  {26ccc6ea-d848-4398-839a-996bec38b33f}; ! Name of Object 1

