
OS:Version,
  {06c69de9-8e33-4b67-a99e-f60b8742edce}, ! Handle
  0.9.3;                                  ! Version Identifier

OS:SizingPeriod:DesignDay,
  {b76c9ffa-b73c-40e3-93e8-f5d7ef8cff51}, ! Handle
  MANSFIELD Ann Htg Wind 99.6% Condns WS=>MCDB, ! Name
  0.9,                                    ! Maximum Dry-Bulb Temperature {C}
  0,                                      ! Daily Dry-Bulb Temperature Range {deltaC}
  0.9,                                    ! Humidity Indicating Conditions at Maximum Dry-Bulb {BasedOnField A3}
  96669,                                  ! Barometric Pressure {Pa}
  12.6,                                   ! Wind Speed {m/s}
  250,                                    ! Wind Direction {deg}
  0,                                      ! Sky Clearness
  0,                                      ! Rain Indicator
  0,                                      ! Snow Indicator
  21,                                     ! Day of Month
  1,                                      ! Month
  WinterDesignDay,                        ! Day Type
  0,                                      ! Daylight Saving Time Indicator
  Wetbulb,                                ! Humidity Indicating Type
  ,                                       ! Humidity Indicating Day Schedule Name
  DefaultMultipliers,                     ! Dry-Bulb Temperature Range Modifier Type
  ,                                       ! Dry-Bulb Temperature Range Modifier Schedule Name
  ASHRAEClearSky;                         ! Solar Model Indicator

