
OS:Version,
  {a56aca18-85b9-4367-9a3d-a3c7d959ddaa}, ! Handle
  0.9.3;                                  ! Version Identifier

OS:SizingPeriod:DesignDay,
  {acfc6e7d-853d-4195-b385-457d393aa41e}, ! Handle
  Pierre Municipal Ap Ann Clg 2% Condns DP=>MDB, ! Name
  25.9,                                   ! Maximum Dry-Bulb Temperature {C}
  14.3,                                   ! Daily Dry-Bulb Temperature Range {deltaC}
  19.6,                                   ! Humidity Indicating Conditions at Maximum Dry-Bulb {BasedOnField A3}
  95141,                                  ! Barometric Pressure {Pa}
  6.2,                                    ! Wind Speed {m/s}
  170,                                    ! Wind Direction {deg}
  0,                                      ! Sky Clearness
  0,                                      ! Rain Indicator
  0,                                      ! Snow Indicator
  21,                                     ! Day of Month
  7,                                      ! Month
  SummerDesignDay,                        ! Day Type
  0,                                      ! Daylight Saving Time Indicator
  Dewpoint,                               ! Humidity Indicating Type
  ,                                       ! Humidity Indicating Day Schedule Name
  DefaultMultipliers,                     ! Dry-Bulb Temperature Range Modifier Type
  ,                                       ! Dry-Bulb Temperature Range Modifier Schedule Name
  ASHRAETau,                              ! Solar Model Indicator
  ,                                       ! Beam Solar Day Schedule Name
  ,                                       ! Diffuse Solar Day Schedule Name
  0.427,                                  ! ASHRAE Taub {dimensionless}
  2.103;                                  ! ASHRAE Taud {dimensionless}

OS:ComponentData,
  {319e0f7b-5789-4359-8a85-ad5f6b98c9c0}, ! Handle
  Component Data 1,                       ! Name
  {3df9b034-d6e0-4bea-bc6e-68f2735ab134}, ! UUID
  {213aad5c-6a69-4549-b88f-313046a7a600}, ! Version UUID
  1366310437,                             ! Creation Timestamp
  1366310437,                             ! Version Timestamp
  {acfc6e7d-853d-4195-b385-457d393aa41e}; ! Name of Object 1

