
OS:Version,
  {0c03322b-6799-48c1-b94b-91abd71ab302}, ! Handle
  0.9.3;                                  ! Version Identifier

OS:SizingPeriod:DesignDay,
  {6dd07d0e-4116-4231-9f93-63488d9f6d49}, ! Handle
  Red Bluff Ann Htg 99.6% Condns DB,      ! Name
  -1.1,                                   ! Maximum Dry-Bulb Temperature {C}
  0,                                      ! Daily Dry-Bulb Temperature Range {deltaC}
  -1.1,                                   ! Humidity Indicating Conditions at Maximum Dry-Bulb {BasedOnField A3}
  100058,                                 ! Barometric Pressure {Pa}
  2.3,                                    ! Wind Speed {m/s}
  320,                                    ! Wind Direction {deg}
  0,                                      ! Sky Clearness
  0,                                      ! Rain Indicator
  0,                                      ! Snow Indicator
  21,                                     ! Day of Month
  12,                                     ! Month
  WinterDesignDay,                        ! Day Type
  0,                                      ! Daylight Saving Time Indicator
  Wetbulb,                                ! Humidity Indicating Type
  ,                                       ! Humidity Indicating Day Schedule Name
  DefaultMultipliers,                     ! Dry-Bulb Temperature Range Modifier Type
  ,                                       ! Dry-Bulb Temperature Range Modifier Schedule Name
  ASHRAEClearSky;                         ! Solar Model Indicator

OS:ComponentData,
  {78bbc271-5c0a-48af-83cc-dfe5c0b9f8e2}, ! Handle
  Component Data 1,                       ! Name
  {43876476-3d16-45c5-ac84-9caf1eb20294}, ! UUID
  {722c929b-85b3-483c-9f91-2ee82baa828e}, ! Version UUID
  1366306543,                             ! Creation Timestamp
  1366306543,                             ! Version Timestamp
  {6dd07d0e-4116-4231-9f93-63488d9f6d49}; ! Name of Object 1

