
OS:Version,
  {034788a6-2831-4faf-af78-876fc536db17}, ! Handle
  0.9.3;                                  ! Version Identifier

OS:SizingPeriod:DesignDay,
  {a707bb3c-f646-40f2-8556-9fbf03802517}, ! Handle
  Winchester Rgnl Ann Htg Wind 99% Condns WS=>MCDB, ! Name
  1.5,                                    ! Maximum Dry-Bulb Temperature {C}
  0,                                      ! Daily Dry-Bulb Temperature Range {deltaC}
  1.5,                                    ! Humidity Indicating Conditions at Maximum Dry-Bulb {BasedOnField A3}
  98686,                                  ! Barometric Pressure {Pa}
  11.1,                                   ! Wind Speed {m/s}
  320,                                    ! Wind Direction {deg}
  0,                                      ! Sky Clearness
  0,                                      ! Rain Indicator
  0,                                      ! Snow Indicator
  21,                                     ! Day of Month
  1,                                      ! Month
  WinterDesignDay,                        ! Day Type
  0,                                      ! Daylight Saving Time Indicator
  Wetbulb,                                ! Humidity Indicating Type
  ,                                       ! Humidity Indicating Day Schedule Name
  DefaultMultipliers,                     ! Dry-Bulb Temperature Range Modifier Type
  ,                                       ! Dry-Bulb Temperature Range Modifier Schedule Name
  ASHRAEClearSky;                         ! Solar Model Indicator

OS:ComponentData,
  {e074d2a8-2d27-4d8d-829a-10852d1d5afe}, ! Handle
  Component Data 1,                       ! Name
  {a4886a9f-4cea-4ac2-9494-1a9d1a13c5a5}, ! UUID
  {58101e3a-d608-48fb-8da7-b749530821a1}, ! Version UUID
  1366311223,                             ! Creation Timestamp
  1366311223,                             ! Version Timestamp
  {a707bb3c-f646-40f2-8556-9fbf03802517}; ! Name of Object 1

