
OS:Version,
  {3464a5e9-aea0-4b06-90c2-62d50da86a61}, ! Handle
  0.9.3;                                  ! Version Identifier

OS:SizingPeriod:DesignDay,
  {506d90e6-ce6d-42d3-bfe8-4cf93e33c9f0}, ! Handle
  Port Heiden Ann Clg .4% Condns DB=>MWB, ! Name
  18.1,                                   ! Maximum Dry-Bulb Temperature {C}
  5.4,                                    ! Daily Dry-Bulb Temperature Range {deltaC}
  12.8,                                   ! Humidity Indicating Conditions at Maximum Dry-Bulb {BasedOnField A3}
  100977,                                 ! Barometric Pressure {Pa}
  7.3,                                    ! Wind Speed {m/s}
  150,                                    ! Wind Direction {deg}
  0,                                      ! Sky Clearness
  0,                                      ! Rain Indicator
  0,                                      ! Snow Indicator
  21,                                     ! Day of Month
  8,                                      ! Month
  SummerDesignDay,                        ! Day Type
  0,                                      ! Daylight Saving Time Indicator
  Wetbulb,                                ! Humidity Indicating Type
  ,                                       ! Humidity Indicating Day Schedule Name
  DefaultMultipliers,                     ! Dry-Bulb Temperature Range Modifier Type
  ,                                       ! Dry-Bulb Temperature Range Modifier Schedule Name
  ASHRAETau,                              ! Solar Model Indicator
  ,                                       ! Beam Solar Day Schedule Name
  ,                                       ! Diffuse Solar Day Schedule Name
  0.375,                                  ! ASHRAE Taub {dimensionless}
  2.3;                                    ! ASHRAE Taud {dimensionless}

OS:ComponentData,
  {eecb2391-4611-4664-ac5d-3f0cba8f7f0e}, ! Handle
  Component Data 1,                       ! Name
  {e849305a-4191-41d6-b2e0-a8d38f869dec}, ! UUID
  {f2e49c74-2116-4328-ae58-1e64812a92d6}, ! Version UUID
  1366305501,                             ! Creation Timestamp
  1366305501,                             ! Version Timestamp
  {506d90e6-ce6d-42d3-bfe8-4cf93e33c9f0}; ! Name of Object 1

