
OS:Version,
  {483412df-5e5c-4f16-aafa-4399dabfc4d2}, ! Handle
  0.9.3;                                  ! Version Identifier

OS:SizingPeriod:DesignDay,
  {885c4589-6db1-4fa3-b9fd-5d82302e6d6d}, ! Handle
  WORCESTER Ann Hum_n 99% Condns DP=>MCDB, ! Name
  -12.5,                                  ! Maximum Dry-Bulb Temperature {C}
  0,                                      ! Daily Dry-Bulb Temperature Range {deltaC}
  -22.8,                                  ! Humidity Indicating Conditions at Maximum Dry-Bulb {BasedOnField A3}
  97761,                                  ! Barometric Pressure {Pa}
  6,                                      ! Wind Speed {m/s}
  280,                                    ! Wind Direction {deg}
  0,                                      ! Sky Clearness
  0,                                      ! Rain Indicator
  0,                                      ! Snow Indicator
  21,                                     ! Day of Month
  1,                                      ! Month
  WinterDesignDay,                        ! Day Type
  0,                                      ! Daylight Saving Time Indicator
  Dewpoint,                               ! Humidity Indicating Type
  ,                                       ! Humidity Indicating Day Schedule Name
  DefaultMultipliers,                     ! Dry-Bulb Temperature Range Modifier Type
  ,                                       ! Dry-Bulb Temperature Range Modifier Schedule Name
  ASHRAEClearSky;                         ! Solar Model Indicator

OS:ComponentData,
  {6a2a61e8-49b9-4db8-9fe8-9291925dfe66}, ! Handle
  Component Data 1,                       ! Name
  {5850ddc2-d092-4d57-94dd-8788fe5aa647}, ! UUID
  {ab802866-b9a3-4306-89f7-f9519f3b841c}, ! Version UUID
  1366307826,                             ! Creation Timestamp
  1366307826,                             ! Version Timestamp
  {885c4589-6db1-4fa3-b9fd-5d82302e6d6d}; ! Name of Object 1

