
OS:Version,
  {4bb951d9-5434-4ab9-ad61-f5e347c0cd00}, ! Handle
  0.9.3;                                  ! Version Identifier

OS:SizingPeriod:DesignDay,
  {c717fae2-7d11-4b8c-969c-be83def8e055}, ! Handle
  Terre Haute Hulman Regional A Ann Clg 2% Condns DB=>MWB, ! Name
  31,                                     ! Maximum Dry-Bulb Temperature {C}
  10.9,                                   ! Daily Dry-Bulb Temperature Range {deltaC}
  23.7,                                   ! Humidity Indicating Conditions at Maximum Dry-Bulb {BasedOnField A3}
  99240,                                  ! Barometric Pressure {Pa}
  4.4,                                    ! Wind Speed {m/s}
  200,                                    ! Wind Direction {deg}
  0,                                      ! Sky Clearness
  0,                                      ! Rain Indicator
  0,                                      ! Snow Indicator
  21,                                     ! Day of Month
  7,                                      ! Month
  SummerDesignDay,                        ! Day Type
  0,                                      ! Daylight Saving Time Indicator
  Wetbulb,                                ! Humidity Indicating Type
  ,                                       ! Humidity Indicating Day Schedule Name
  DefaultMultipliers,                     ! Dry-Bulb Temperature Range Modifier Type
  ,                                       ! Dry-Bulb Temperature Range Modifier Schedule Name
  ASHRAETau,                              ! Solar Model Indicator
  ,                                       ! Beam Solar Day Schedule Name
  ,                                       ! Diffuse Solar Day Schedule Name
  0.482,                                  ! ASHRAE Taub {dimensionless}
  1.952;                                  ! ASHRAE Taud {dimensionless}

OS:ComponentData,
  {572f571a-65fc-452d-af0a-0e95c77c9981}, ! Handle
  Component Data 1,                       ! Name
  {0d58d6bd-e5bd-4b09-a8f3-c3537e878559}, ! UUID
  {e47253d7-a73b-467f-901e-232da61e0649}, ! Version UUID
  1366307492,                             ! Creation Timestamp
  1366307492,                             ! Version Timestamp
  {c717fae2-7d11-4b8c-969c-be83def8e055}; ! Name of Object 1

