
OS:Version,
  {a17ef19f-aa67-4c8b-a932-1fc700e05bbd}, ! Handle
  0.9.3;                                  ! Version Identifier

OS:SizingPeriod:DesignDay,
  {f4cbf561-840e-4aef-9a9e-2b6e5629d550}, ! Handle
  Montague Siskiyou County Ap Ann Clg .4% Condns WB=>MDB, ! Name
  33.1,                                   ! Maximum Dry-Bulb Temperature {C}
  19.4,                                   ! Daily Dry-Bulb Temperature Range {deltaC}
  18.9,                                   ! Humidity Indicating Conditions at Maximum Dry-Bulb {BasedOnField A3}
  92043,                                  ! Barometric Pressure {Pa}
  3.2,                                    ! Wind Speed {m/s}
  190,                                    ! Wind Direction {deg}
  0,                                      ! Sky Clearness
  0,                                      ! Rain Indicator
  0,                                      ! Snow Indicator
  21,                                     ! Day of Month
  7,                                      ! Month
  SummerDesignDay,                        ! Day Type
  0,                                      ! Daylight Saving Time Indicator
  Wetbulb,                                ! Humidity Indicating Type
  ,                                       ! Humidity Indicating Day Schedule Name
  DefaultMultipliers,                     ! Dry-Bulb Temperature Range Modifier Type
  ,                                       ! Dry-Bulb Temperature Range Modifier Schedule Name
  ASHRAETau,                              ! Solar Model Indicator
  ,                                       ! Beam Solar Day Schedule Name
  ,                                       ! Diffuse Solar Day Schedule Name
  0.349,                                  ! ASHRAE Taub {dimensionless}
  2.55;                                   ! ASHRAE Taud {dimensionless}

OS:ComponentData,
  {dadafee1-8a4d-45f1-98ed-af5d0ef33291}, ! Handle
  Component Data 1,                       ! Name
  {db25b731-168b-4f71-ad23-bcab98ad7734}, ! UUID
  {255087c4-20bf-4b93-87f3-12df62f66269}, ! Version UUID
  1366306495,                             ! Creation Timestamp
  1366306495,                             ! Version Timestamp
  {f4cbf561-840e-4aef-9a9e-2b6e5629d550}; ! Name of Object 1

