
OS:Version,
  {ee14067b-4bd5-432e-adff-ae8a63fc5163}, ! Handle
  0.9.3;                                  ! Version Identifier

OS:SizingPeriod:DesignDay,
  {653f9e77-ca7d-40b2-89cc-da46aea090cd}, ! Handle
  Wichita Col  Jabara Ann Clg .4% Condns WB=>MDB, ! Name
  32.7,                                   ! Maximum Dry-Bulb Temperature {C}
  12,                                     ! Daily Dry-Bulb Temperature Range {deltaC}
  25.2,                                   ! Humidity Indicating Conditions at Maximum Dry-Bulb {BasedOnField A3}
  96230,                                  ! Barometric Pressure {Pa}
  6.2,                                    ! Wind Speed {m/s}
  180,                                    ! Wind Direction {deg}
  0,                                      ! Sky Clearness
  0,                                      ! Rain Indicator
  0,                                      ! Snow Indicator
  21,                                     ! Day of Month
  7,                                      ! Month
  SummerDesignDay,                        ! Day Type
  0,                                      ! Daylight Saving Time Indicator
  Wetbulb,                                ! Humidity Indicating Type
  ,                                       ! Humidity Indicating Day Schedule Name
  DefaultMultipliers,                     ! Dry-Bulb Temperature Range Modifier Type
  ,                                       ! Dry-Bulb Temperature Range Modifier Schedule Name
  ASHRAETau,                              ! Solar Model Indicator
  ,                                       ! Beam Solar Day Schedule Name
  ,                                       ! Diffuse Solar Day Schedule Name
  0.418,                                  ! ASHRAE Taub {dimensionless}
  2.21;                                   ! ASHRAE Taud {dimensionless}

OS:ComponentData,
  {4688d955-e725-4a7e-a0c8-425aa8d0763b}, ! Handle
  Component Data 1,                       ! Name
  {8d361465-45a5-4cdb-adb5-b5366510e2c2}, ! UUID
  {9604af9a-2283-4942-80af-d525fdb19606}, ! Version UUID
  1366307596,                             ! Creation Timestamp
  1366307596,                             ! Version Timestamp
  {653f9e77-ca7d-40b2-89cc-da46aea090cd}; ! Name of Object 1

