
OS:Version,
  {2badf1a7-75ce-4c4f-83ca-efe9a0bc8df9}, ! Handle
  0.9.3;                                  ! Version Identifier

OS:SizingPeriod:DesignDay,
  {e0298fe1-5689-4d4d-a0ed-6dae349e858b}, ! Handle
  Vero Beach Municipal Arpt Ann Htg Wind 99% Condns WS=>MCDB, ! Name
  19.6,                                   ! Maximum Dry-Bulb Temperature {C}
  0,                                      ! Daily Dry-Bulb Temperature Range {deltaC}
  19.6,                                   ! Humidity Indicating Conditions at Maximum Dry-Bulb {BasedOnField A3}
  101241,                                 ! Barometric Pressure {Pa}
  9.2,                                    ! Wind Speed {m/s}
  320,                                    ! Wind Direction {deg}
  0,                                      ! Sky Clearness
  0,                                      ! Rain Indicator
  0,                                      ! Snow Indicator
  21,                                     ! Day of Month
  1,                                      ! Month
  WinterDesignDay,                        ! Day Type
  0,                                      ! Daylight Saving Time Indicator
  Wetbulb,                                ! Humidity Indicating Type
  ,                                       ! Humidity Indicating Day Schedule Name
  DefaultMultipliers,                     ! Dry-Bulb Temperature Range Modifier Type
  ,                                       ! Dry-Bulb Temperature Range Modifier Schedule Name
  ASHRAEClearSky;                         ! Solar Model Indicator

OS:ComponentData,
  {ebc70597-0419-4ef3-8a5d-19f5690c09b9}, ! Handle
  Component Data 1,                       ! Name
  {a82abd64-5a55-4c9d-9265-90d00e6a5308}, ! UUID
  {061f3717-e323-4ff7-98a4-bfbd41805124}, ! Version UUID
  1366306945,                             ! Creation Timestamp
  1366306945,                             ! Version Timestamp
  {e0298fe1-5689-4d4d-a0ed-6dae349e858b}; ! Name of Object 1

