
OS:Version,
  {e0f04bc5-7875-4c2b-878d-14effbe789f7}, ! Handle
  0.9.3;                                  ! Version Identifier

OS:SizingPeriod:DesignDay,
  {a252b95b-315f-4ad7-b428-f5d90bc788ca}, ! Handle
  Whidbey Island NAS Ann Hum_n 99% Condns DP=>MCDB, ! Name
  -1.2,                                   ! Maximum Dry-Bulb Temperature {C}
  0,                                      ! Daily Dry-Bulb Temperature Range {deltaC}
  -8.9,                                   ! Humidity Indicating Conditions at Maximum Dry-Bulb {BasedOnField A3}
  101205,                                 ! Barometric Pressure {Pa}
  2.6,                                    ! Wind Speed {m/s}
  120,                                    ! Wind Direction {deg}
  0,                                      ! Sky Clearness
  0,                                      ! Rain Indicator
  0,                                      ! Snow Indicator
  21,                                     ! Day of Month
  12,                                     ! Month
  WinterDesignDay,                        ! Day Type
  0,                                      ! Daylight Saving Time Indicator
  Dewpoint,                               ! Humidity Indicating Type
  ,                                       ! Humidity Indicating Day Schedule Name
  DefaultMultipliers,                     ! Dry-Bulb Temperature Range Modifier Type
  ,                                       ! Dry-Bulb Temperature Range Modifier Schedule Name
  ASHRAEClearSky;                         ! Solar Model Indicator

OS:ComponentData,
  {9e8e886a-935d-4e8f-bc3f-dc04201f7ca1}, ! Handle
  Component Data 1,                       ! Name
  {f52b14dc-bdd0-4fec-8724-8085dca861e4}, ! UUID
  {c631f856-ffd0-4ea2-9252-f93ba5457dd4}, ! Version UUID
  1366311431,                             ! Creation Timestamp
  1366311431,                             ! Version Timestamp
  {a252b95b-315f-4ad7-b428-f5d90bc788ca}; ! Name of Object 1

