
OS:Version,
  {5afeca6e-4047-4704-8a95-0eb2ad5ce813}, ! Handle
  0.9.3;                                  ! Version Identifier

OS:SizingPeriod:DesignDay,
  {9730cbca-e66e-4fee-9bd4-472ffe689457}, ! Handle
  Savannah Ann Clg 1% Condns DP=>MDB,     ! Name
  28.1,                                   ! Maximum Dry-Bulb Temperature {C}
  10,                                     ! Daily Dry-Bulb Temperature Range {deltaC}
  25,                                     ! Humidity Indicating Conditions at Maximum Dry-Bulb {BasedOnField A3}
  101145,                                 ! Barometric Pressure {Pa}
  3.7,                                    ! Wind Speed {m/s}
  290,                                    ! Wind Direction {deg}
  0,                                      ! Sky Clearness
  0,                                      ! Rain Indicator
  0,                                      ! Snow Indicator
  21,                                     ! Day of Month
  7,                                      ! Month
  SummerDesignDay,                        ! Day Type
  0,                                      ! Daylight Saving Time Indicator
  Dewpoint,                               ! Humidity Indicating Type
  ,                                       ! Humidity Indicating Day Schedule Name
  DefaultMultipliers,                     ! Dry-Bulb Temperature Range Modifier Type
  ,                                       ! Dry-Bulb Temperature Range Modifier Schedule Name
  ASHRAETau,                              ! Solar Model Indicator
  ,                                       ! Beam Solar Day Schedule Name
  ,                                       ! Diffuse Solar Day Schedule Name
  0.558,                                  ! ASHRAE Taub {dimensionless}
  1.811;                                  ! ASHRAE Taud {dimensionless}

OS:ComponentData,
  {81073064-fc78-4578-a653-1e8ccab3fb64}, ! Handle
  Component Data 1,                       ! Name
  {d0eb728e-9a2a-4feb-b590-b1f99fb223fd}, ! UUID
  {587ff725-3577-49cd-8af6-6ebfef067c6e}, ! Version UUID
  1366307053,                             ! Creation Timestamp
  1366307053,                             ! Version Timestamp
  {9730cbca-e66e-4fee-9bd4-472ffe689457}; ! Name of Object 1

