
OS:Version,
  {9e8f85da-8210-465e-b072-30b62d0ec8ac}, ! Handle
  0.9.3;                                  ! Version Identifier

OS:SizingPeriod:DesignDay,
  {22c0e334-2977-42cf-a4a9-f9eca968371e}, ! Handle
  Mitchell  Awos Ann Htg Wind 99% Condns WS=>MCDB, ! Name
  -9.7,                                   ! Maximum Dry-Bulb Temperature {C}
  0,                                      ! Daily Dry-Bulb Temperature Range {deltaC}
  -9.7,                                   ! Humidity Indicating Conditions at Maximum Dry-Bulb {BasedOnField A3}
  96646,                                  ! Barometric Pressure {Pa}
  13.9,                                   ! Wind Speed {m/s}
  320,                                    ! Wind Direction {deg}
  0,                                      ! Sky Clearness
  0,                                      ! Rain Indicator
  0,                                      ! Snow Indicator
  21,                                     ! Day of Month
  1,                                      ! Month
  WinterDesignDay,                        ! Day Type
  0,                                      ! Daylight Saving Time Indicator
  Wetbulb,                                ! Humidity Indicating Type
  ,                                       ! Humidity Indicating Day Schedule Name
  DefaultMultipliers,                     ! Dry-Bulb Temperature Range Modifier Type
  ,                                       ! Dry-Bulb Temperature Range Modifier Schedule Name
  ASHRAEClearSky;                         ! Solar Model Indicator

OS:ComponentData,
  {0ae12433-6f70-4fc9-92a1-dfdcbe2350e7}, ! Handle
  Component Data 1,                       ! Name
  {6ac5ff59-a4c3-4a3a-adc6-18fae4bba740}, ! UUID
  {cef73784-4630-4e9a-8c5c-542eba6b9dc5}, ! Version UUID
  1366310412,                             ! Creation Timestamp
  1366310412,                             ! Version Timestamp
  {22c0e334-2977-42cf-a4a9-f9eca968371e}; ! Name of Object 1

