
OS:Version,
  {399fbbc1-0989-4316-8c68-ab68f90c67fa}, ! Handle
  0.9.3;                                  ! Version Identifier

OS:SizingPeriod:DesignDay,
  {b64fa961-ba71-4774-89a5-9224c36a4624}, ! Handle
  North Platte Regional Ap Ann Htg Wind 99% Condns WS=>MCDB, ! Name
  -0.4,                                   ! Maximum Dry-Bulb Temperature {C}
  0,                                      ! Daily Dry-Bulb Temperature Range {deltaC}
  -0.4,                                   ! Humidity Indicating Conditions at Maximum Dry-Bulb {BasedOnField A3}
  91555,                                  ! Barometric Pressure {Pa}
  12.4,                                   ! Wind Speed {m/s}
  320,                                    ! Wind Direction {deg}
  0,                                      ! Sky Clearness
  0,                                      ! Rain Indicator
  0,                                      ! Snow Indicator
  21,                                     ! Day of Month
  1,                                      ! Month
  WinterDesignDay,                        ! Day Type
  0,                                      ! Daylight Saving Time Indicator
  Wetbulb,                                ! Humidity Indicating Type
  ,                                       ! Humidity Indicating Day Schedule Name
  DefaultMultipliers,                     ! Dry-Bulb Temperature Range Modifier Type
  ,                                       ! Dry-Bulb Temperature Range Modifier Schedule Name
  ASHRAEClearSky;                         ! Solar Model Indicator

OS:ComponentData,
  {ceff315b-0940-422a-8c31-f52493798898}, ! Handle
  Component Data 1,                       ! Name
  {961e2661-3903-4ddb-8833-f0a56b8307f8}, ! UUID
  {57d8a8b2-bb38-4df3-97ce-3f0e492c2415}, ! Version UUID
  1366309164,                             ! Creation Timestamp
  1366309164,                             ! Version Timestamp
  {b64fa961-ba71-4774-89a5-9224c36a4624}; ! Name of Object 1

