
OS:Version,
  {737030d0-ceb3-4c48-9c60-b210fb88d41d}, ! Handle
  0.9.3;                                  ! Version Identifier

OS:SizingPeriod:DesignDay,
  {258d2303-e941-4e8d-901f-0f37badac80c}, ! Handle
  Rogers  Awos Ann Htg Wind 99.6% Condns WS=>MCDB, ! Name
  12.8,                                   ! Maximum Dry-Bulb Temperature {C}
  0,                                      ! Daily Dry-Bulb Temperature Range {deltaC}
  12.8,                                   ! Humidity Indicating Conditions at Maximum Dry-Bulb {BasedOnField A3}
  96438,                                  ! Barometric Pressure {Pa}
  11,                                     ! Wind Speed {m/s}
  310,                                    ! Wind Direction {deg}
  0,                                      ! Sky Clearness
  0,                                      ! Rain Indicator
  0,                                      ! Snow Indicator
  21,                                     ! Day of Month
  1,                                      ! Month
  WinterDesignDay,                        ! Day Type
  0,                                      ! Daylight Saving Time Indicator
  Wetbulb,                                ! Humidity Indicating Type
  ,                                       ! Humidity Indicating Day Schedule Name
  DefaultMultipliers,                     ! Dry-Bulb Temperature Range Modifier Type
  ,                                       ! Dry-Bulb Temperature Range Modifier Schedule Name
  ASHRAEClearSky;                         ! Solar Model Indicator

OS:ComponentData,
  {47f17703-5c25-4f9c-a771-8d4dc8cddbb0}, ! Handle
  Component Data 1,                       ! Name
  {0ee69118-11eb-466e-af5e-4f1bde25f91b}, ! UUID
  {703a2c82-ce1f-49bc-81b6-654d97afd7b8}, ! Version UUID
  1366306243,                             ! Creation Timestamp
  1366306243,                             ! Version Timestamp
  {258d2303-e941-4e8d-901f-0f37badac80c}; ! Name of Object 1

