
OS:Version,
  {406c1ff7-6c98-4c92-858e-252a933dfb66}, ! Handle
  0.9.3;                                  ! Version Identifier

OS:SizingPeriod:DesignDay,
  {669bba09-ea06-48a6-87f1-602fc8536e8b}, ! Handle
  Mc Gregor  Awos Ann Clg 2% Condns WB=>MDB, ! Name
  32.5,                                   ! Maximum Dry-Bulb Temperature {C}
  12.2,                                   ! Daily Dry-Bulb Temperature Range {deltaC}
  25.1,                                   ! Humidity Indicating Conditions at Maximum Dry-Bulb {BasedOnField A3}
  99181,                                  ! Barometric Pressure {Pa}
  4.4,                                    ! Wind Speed {m/s}
  170,                                    ! Wind Direction {deg}
  0,                                      ! Sky Clearness
  0,                                      ! Rain Indicator
  0,                                      ! Snow Indicator
  21,                                     ! Day of Month
  7,                                      ! Month
  SummerDesignDay,                        ! Day Type
  0,                                      ! Daylight Saving Time Indicator
  Wetbulb,                                ! Humidity Indicating Type
  ,                                       ! Humidity Indicating Day Schedule Name
  DefaultMultipliers,                     ! Dry-Bulb Temperature Range Modifier Type
  ,                                       ! Dry-Bulb Temperature Range Modifier Schedule Name
  ASHRAETau,                              ! Solar Model Indicator
  ,                                       ! Beam Solar Day Schedule Name
  ,                                       ! Diffuse Solar Day Schedule Name
  0.456,                                  ! ASHRAE Taub {dimensionless}
  2.109;                                  ! ASHRAE Taud {dimensionless}

OS:ComponentData,
  {2b4a0ec6-1043-4655-bbea-c845015936f1}, ! Handle
  Component Data 1,                       ! Name
  {f45a95e0-7275-4016-9362-75a6031dc0bf}, ! UUID
  {5c52927a-74f6-43f6-9c82-4ffd44a45ef9}, ! Version UUID
  1366310823,                             ! Creation Timestamp
  1366310823,                             ! Version Timestamp
  {669bba09-ea06-48a6-87f1-602fc8536e8b}; ! Name of Object 1

