
OS:Version,
  {03f9455f-adce-42c3-b539-4f56b6051419}, ! Handle
  0.9.3;                                  ! Version Identifier

OS:SizingPeriod:DesignDay,
  {82d09dfa-4e25-4bff-94bb-8aa352ebc593}, ! Handle
  Webster City Ann Clg 2% Condns Enth=>MDB, ! Name
  29.7,                                   ! Maximum Dry-Bulb Temperature {C}
  11,                                     ! Daily Dry-Bulb Temperature Range {deltaC}
  79600,                                  ! Humidity Indicating Conditions at Maximum Dry-Bulb {BasedOnField A3}
  97283,                                  ! Barometric Pressure {Pa}
  5.8,                                    ! Wind Speed {m/s}
  200,                                    ! Wind Direction {deg}
  0,                                      ! Sky Clearness
  0,                                      ! Rain Indicator
  0,                                      ! Snow Indicator
  21,                                     ! Day of Month
  7,                                      ! Month
  SummerDesignDay,                        ! Day Type
  0,                                      ! Daylight Saving Time Indicator
  Enthalpy,                               ! Humidity Indicating Type
  ,                                       ! Humidity Indicating Day Schedule Name
  DefaultMultipliers,                     ! Dry-Bulb Temperature Range Modifier Type
  ,                                       ! Dry-Bulb Temperature Range Modifier Schedule Name
  ASHRAETau,                              ! Solar Model Indicator
  ,                                       ! Beam Solar Day Schedule Name
  ,                                       ! Diffuse Solar Day Schedule Name
  0.412,                                  ! ASHRAE Taub {dimensionless}
  2.206;                                  ! ASHRAE Taud {dimensionless}

OS:ComponentData,
  {e38a08b8-05ab-461d-bdfd-83b7a3a61b03}, ! Handle
  Component Data 1,                       ! Name
  {e7eab1ec-9b96-4f37-80f4-1f72b11da4b2}, ! UUID
  {d78e4e62-650e-43cb-8bf2-29334fb4da57}, ! Version UUID
  1366307260,                             ! Creation Timestamp
  1366307260,                             ! Version Timestamp
  {82d09dfa-4e25-4bff-94bb-8aa352ebc593}; ! Name of Object 1

