
OS:Version,
  {d8441423-387b-468e-9d30-d59a0edbada2}, ! Handle
  0.9.3;                                  ! Version Identifier

OS:SizingPeriod:DesignDay,
  {0ff09ed9-bc4e-489c-9ba5-7f2f6a1dd11b}, ! Handle
  Tallahassee Ann Htg Wind 99% Condns WS=>MCDB, ! Name
  14.6,                                   ! Maximum Dry-Bulb Temperature {C}
  0,                                      ! Daily Dry-Bulb Temperature Range {deltaC}
  14.6,                                   ! Humidity Indicating Conditions at Maximum Dry-Bulb {BasedOnField A3}
  101073,                                 ! Barometric Pressure {Pa}
  8.2,                                    ! Wind Speed {m/s}
  350,                                    ! Wind Direction {deg}
  0,                                      ! Sky Clearness
  0,                                      ! Rain Indicator
  0,                                      ! Snow Indicator
  21,                                     ! Day of Month
  1,                                      ! Month
  WinterDesignDay,                        ! Day Type
  0,                                      ! Daylight Saving Time Indicator
  Wetbulb,                                ! Humidity Indicating Type
  ,                                       ! Humidity Indicating Day Schedule Name
  DefaultMultipliers,                     ! Dry-Bulb Temperature Range Modifier Type
  ,                                       ! Dry-Bulb Temperature Range Modifier Schedule Name
  ASHRAEClearSky;                         ! Solar Model Indicator

OS:ComponentData,
  {26dc1f93-820e-4ebb-ad88-f1c25b71eed7}, ! Handle
  Component Data 1,                       ! Name
  {79a15940-8dd1-4eef-81a6-61ee1e9e125e}, ! UUID
  {a171c6c3-5773-4945-8887-9ea78c460079}, ! Version UUID
  1366306923,                             ! Creation Timestamp
  1366306923,                             ! Version Timestamp
  {0ff09ed9-bc4e-489c-9ba5-7f2f6a1dd11b}; ! Name of Object 1

