
OS:Version,
  {ea513596-f9dd-4256-b9c0-abd31737ed9b}, ! Handle
  0.9.3;                                  ! Version Identifier

OS:SizingPeriod:DesignDay,
  {e168b9f0-c649-4e63-87eb-ba02f8964c0d}, ! Handle
  Minot/Int'l Airport Ann Hum_n 99% Condns DP=>MCDB, ! Name
  -25.8,                                  ! Maximum Dry-Bulb Temperature {C}
  0,                                      ! Daily Dry-Bulb Temperature Range {deltaC}
  -30.7,                                  ! Humidity Indicating Conditions at Maximum Dry-Bulb {BasedOnField A3}
  95198,                                  ! Barometric Pressure {Pa}
  5.4,                                    ! Wind Speed {m/s}
  280,                                    ! Wind Direction {deg}
  0,                                      ! Sky Clearness
  0,                                      ! Rain Indicator
  0,                                      ! Snow Indicator
  21,                                     ! Day of Month
  1,                                      ! Month
  WinterDesignDay,                        ! Day Type
  0,                                      ! Daylight Saving Time Indicator
  Dewpoint,                               ! Humidity Indicating Type
  ,                                       ! Humidity Indicating Day Schedule Name
  DefaultMultipliers,                     ! Dry-Bulb Temperature Range Modifier Type
  ,                                       ! Dry-Bulb Temperature Range Modifier Schedule Name
  ASHRAEClearSky;                         ! Solar Model Indicator

OS:ComponentData,
  {50211ad8-6af4-4922-87db-c66bd359e4bb}, ! Handle
  Component Data 1,                       ! Name
  {b326939e-4788-4b55-a648-1a951c2bca0a}, ! UUID
  {a99ff516-af66-48e5-873d-f6456eb05723}, ! Version UUID
  1366309062,                             ! Creation Timestamp
  1366309062,                             ! Version Timestamp
  {e168b9f0-c649-4e63-87eb-ba02f8964c0d}; ! Name of Object 1

