
OS:Version,
  {b1b33add-636b-410c-a4e4-01a4cd89edd3}, ! Handle
  0.9.3;                                  ! Version Identifier

OS:SizingPeriod:DesignDay,
  {fb5b331d-a007-4cde-aa9c-c2ff45c915c7}, ! Handle
  Saginaw Tri City Intl Ap Ann Hum_n 99.6% Condns DP=>MCDB, ! Name
  -16.9,                                  ! Maximum Dry-Bulb Temperature {C}
  0,                                      ! Daily Dry-Bulb Temperature Range {deltaC}
  -22,                                    ! Humidity Indicating Conditions at Maximum Dry-Bulb {BasedOnField A3}
  98934,                                  ! Barometric Pressure {Pa}
  4.2,                                    ! Wind Speed {m/s}
  260,                                    ! Wind Direction {deg}
  0,                                      ! Sky Clearness
  0,                                      ! Rain Indicator
  0,                                      ! Snow Indicator
  21,                                     ! Day of Month
  1,                                      ! Month
  WinterDesignDay,                        ! Day Type
  0,                                      ! Daylight Saving Time Indicator
  Dewpoint,                               ! Humidity Indicating Type
  ,                                       ! Humidity Indicating Day Schedule Name
  DefaultMultipliers,                     ! Dry-Bulb Temperature Range Modifier Type
  ,                                       ! Dry-Bulb Temperature Range Modifier Schedule Name
  ASHRAEClearSky;                         ! Solar Model Indicator

OS:ComponentData,
  {b6fd9be4-b5ba-487e-800b-c6f44b6f5353}, ! Handle
  Component Data 1,                       ! Name
  {0ebd0680-4d8e-43bf-af7d-33f0de31f23c}, ! UUID
  {e441ee45-a0e8-4b23-8c0f-842406d26f66}, ! Version UUID
  1366308096,                             ! Creation Timestamp
  1366308096,                             ! Version Timestamp
  {fb5b331d-a007-4cde-aa9c-c2ff45c915c7}; ! Name of Object 1

