
OS:Version,
  {5d55bf42-534c-4b63-aafb-6b938fb53aa4}, ! Handle
  0.9.3;                                  ! Version Identifier

OS:SizingPeriod:DesignDay,
  {aed57585-83d9-4247-82fb-ec27dd0227ad}, ! Handle
  Newton  Awos Ann Clg 2% Condns DB=>MWB, ! Name
  32.9,                                   ! Maximum Dry-Bulb Temperature {C}
  11.8,                                   ! Daily Dry-Bulb Temperature Range {deltaC}
  22.5,                                   ! Humidity Indicating Conditions at Maximum Dry-Bulb {BasedOnField A3}
  95839,                                  ! Barometric Pressure {Pa}
  6.5,                                    ! Wind Speed {m/s}
  200,                                    ! Wind Direction {deg}
  0,                                      ! Sky Clearness
  0,                                      ! Rain Indicator
  0,                                      ! Snow Indicator
  21,                                     ! Day of Month
  7,                                      ! Month
  SummerDesignDay,                        ! Day Type
  0,                                      ! Daylight Saving Time Indicator
  Wetbulb,                                ! Humidity Indicating Type
  ,                                       ! Humidity Indicating Day Schedule Name
  DefaultMultipliers,                     ! Dry-Bulb Temperature Range Modifier Type
  ,                                       ! Dry-Bulb Temperature Range Modifier Schedule Name
  ASHRAETau,                              ! Solar Model Indicator
  ,                                       ! Beam Solar Day Schedule Name
  ,                                       ! Diffuse Solar Day Schedule Name
  0.415,                                  ! ASHRAE Taub {dimensionless}
  2.218;                                  ! ASHRAE Taud {dimensionless}

OS:ComponentData,
  {c23343f9-554b-4751-9cc5-232597e29889}, ! Handle
  Component Data 1,                       ! Name
  {a285b66e-c3fd-4584-b7e6-e0f3bf63f137}, ! UUID
  {2f52734e-83ee-4144-9473-227ae4492bd2}, ! Version UUID
  1366307563,                             ! Creation Timestamp
  1366307563,                             ! Version Timestamp
  {aed57585-83d9-4247-82fb-ec27dd0227ad}; ! Name of Object 1

