
OS:Version,
  {32d13949-5de1-413d-a3f4-a416b71c934e}, ! Handle
  0.9.3;                                  ! Version Identifier

OS:SizingPeriod:DesignDay,
  {6fdf44fb-027b-4556-82df-2f2e87ea7029}, ! Handle
  Midland International Ap Ann Htg Wind 99.6% Condns WS=>MCDB, ! Name
  12.7,                                   ! Maximum Dry-Bulb Temperature {C}
  0,                                      ! Daily Dry-Bulb Temperature Range {deltaC}
  12.7,                                   ! Humidity Indicating Conditions at Maximum Dry-Bulb {BasedOnField A3}
  91279,                                  ! Barometric Pressure {Pa}
  12.9,                                   ! Wind Speed {m/s}
  40,                                     ! Wind Direction {deg}
  0,                                      ! Sky Clearness
  0,                                      ! Rain Indicator
  0,                                      ! Snow Indicator
  21,                                     ! Day of Month
  12,                                     ! Month
  WinterDesignDay,                        ! Day Type
  0,                                      ! Daylight Saving Time Indicator
  Wetbulb,                                ! Humidity Indicating Type
  ,                                       ! Humidity Indicating Day Schedule Name
  DefaultMultipliers,                     ! Dry-Bulb Temperature Range Modifier Type
  ,                                       ! Dry-Bulb Temperature Range Modifier Schedule Name
  ASHRAEClearSky;                         ! Solar Model Indicator

OS:ComponentData,
  {94c5e666-a12a-4673-a286-344e931ab9ec}, ! Handle
  Component Data 1,                       ! Name
  {950ab162-6b5b-4b9a-bbce-635e94fcb45f}, ! UUID
  {68d2e88d-0947-4e75-830e-ec248ebfeb7a}, ! Version UUID
  1366310834,                             ! Creation Timestamp
  1366310834,                             ! Version Timestamp
  {6fdf44fb-027b-4556-82df-2f2e87ea7029}; ! Name of Object 1

