
OS:Version,
  {ce60f5db-6659-4443-884f-8e3778e1092d}, ! Handle
  0.9.3;                                  ! Version Identifier

OS:SizingPeriod:DesignDay,
  {dc53fc0a-72f8-4eb7-b35d-c45f33ea1857}, ! Handle
  Norfolk International Ap Ann Clg 2% Condns WB=>MDB, ! Name
  29.7,                                   ! Maximum Dry-Bulb Temperature {C}
  8.1,                                    ! Daily Dry-Bulb Temperature Range {deltaC}
  25,                                     ! Humidity Indicating Conditions at Maximum Dry-Bulb {BasedOnField A3}
  101241,                                 ! Barometric Pressure {Pa}
  5,                                      ! Wind Speed {m/s}
  240,                                    ! Wind Direction {deg}
  0,                                      ! Sky Clearness
  0,                                      ! Rain Indicator
  0,                                      ! Snow Indicator
  21,                                     ! Day of Month
  7,                                      ! Month
  SummerDesignDay,                        ! Day Type
  0,                                      ! Daylight Saving Time Indicator
  Wetbulb,                                ! Humidity Indicating Type
  ,                                       ! Humidity Indicating Day Schedule Name
  DefaultMultipliers,                     ! Dry-Bulb Temperature Range Modifier Type
  ,                                       ! Dry-Bulb Temperature Range Modifier Schedule Name
  ASHRAETau,                              ! Solar Model Indicator
  ,                                       ! Beam Solar Day Schedule Name
  ,                                       ! Diffuse Solar Day Schedule Name
  0.59,                                   ! ASHRAE Taub {dimensionless}
  1.703;                                  ! ASHRAE Taud {dimensionless}

OS:ComponentData,
  {8b0be11f-5db5-4ec9-ba26-ef0762e97767}, ! Handle
  Component Data 1,                       ! Name
  {ee9c2aae-6bd9-4e09-a10f-8c4f0fa625a0}, ! UUID
  {c95e1122-a400-42ab-b7b7-7eda31112f36}, ! Version UUID
  1366311135,                             ! Creation Timestamp
  1366311135,                             ! Version Timestamp
  {dc53fc0a-72f8-4eb7-b35d-c45f33ea1857}; ! Name of Object 1

