
OS:Version,
  {075dbffc-f9a9-4a23-a6a6-7e6755f9bbad}, ! Handle
  0.9.3;                                  ! Version Identifier

OS:SizingPeriod:DesignDay,
  {b1971e94-2e34-408d-a281-0890879954d4}, ! Handle
  Montague Siskiyou County Ap Ann Clg .4% Condns DP=>MDB, ! Name
  23.1,                                   ! Maximum Dry-Bulb Temperature {C}
  19.4,                                   ! Daily Dry-Bulb Temperature Range {deltaC}
  13,                                     ! Humidity Indicating Conditions at Maximum Dry-Bulb {BasedOnField A3}
  92043,                                  ! Barometric Pressure {Pa}
  3.2,                                    ! Wind Speed {m/s}
  190,                                    ! Wind Direction {deg}
  0,                                      ! Sky Clearness
  0,                                      ! Rain Indicator
  0,                                      ! Snow Indicator
  21,                                     ! Day of Month
  7,                                      ! Month
  SummerDesignDay,                        ! Day Type
  0,                                      ! Daylight Saving Time Indicator
  Dewpoint,                               ! Humidity Indicating Type
  ,                                       ! Humidity Indicating Day Schedule Name
  DefaultMultipliers,                     ! Dry-Bulb Temperature Range Modifier Type
  ,                                       ! Dry-Bulb Temperature Range Modifier Schedule Name
  ASHRAETau,                              ! Solar Model Indicator
  ,                                       ! Beam Solar Day Schedule Name
  ,                                       ! Diffuse Solar Day Schedule Name
  0.349,                                  ! ASHRAE Taub {dimensionless}
  2.55;                                   ! ASHRAE Taud {dimensionless}

OS:ComponentData,
  {a0c347fb-4687-4ed3-bab0-2be2fcc5ea38}, ! Handle
  Component Data 1,                       ! Name
  {b3504cbf-264a-4f8a-b712-b198014bdd5b}, ! UUID
  {41d5e8f1-7eb4-49e7-942d-2ad1baef8bfd}, ! Version UUID
  1366306496,                             ! Creation Timestamp
  1366306496,                             ! Version Timestamp
  {b1971e94-2e34-408d-a281-0890879954d4}; ! Name of Object 1

