
OS:Version,
  {140d17b3-3e34-4f83-ac93-96d30746d6cb}, ! Handle
  0.9.3;                                  ! Version Identifier

OS:SizingPeriod:DesignDay,
  {e5ff77a6-195a-4c5d-bca1-22201a15e190}, ! Handle
  Somerset Awos Ann Htg 99.6% Condns DB,  ! Name
  -10.2,                                  ! Maximum Dry-Bulb Temperature {C}
  0,                                      ! Daily Dry-Bulb Temperature Range {deltaC}
  -10.2,                                  ! Humidity Indicating Conditions at Maximum Dry-Bulb {BasedOnField A3}
  97971,                                  ! Barometric Pressure {Pa}
  1.3,                                    ! Wind Speed {m/s}
  290,                                    ! Wind Direction {deg}
  0,                                      ! Sky Clearness
  0,                                      ! Rain Indicator
  0,                                      ! Snow Indicator
  21,                                     ! Day of Month
  1,                                      ! Month
  WinterDesignDay,                        ! Day Type
  0,                                      ! Daylight Saving Time Indicator
  Wetbulb,                                ! Humidity Indicating Type
  ,                                       ! Humidity Indicating Day Schedule Name
  DefaultMultipliers,                     ! Dry-Bulb Temperature Range Modifier Type
  ,                                       ! Dry-Bulb Temperature Range Modifier Schedule Name
  ASHRAEClearSky;                         ! Solar Model Indicator

OS:ComponentData,
  {7fba3bf6-4010-48cf-aed5-654ae3d18d36}, ! Handle
  Component Data 1,                       ! Name
  {fc0aabf5-c588-422f-8ff9-931cb8f4ff05}, ! UUID
  {7daf8925-9b62-4c27-b8fb-1df36b59ed27}, ! Version UUID
  1366307686,                             ! Creation Timestamp
  1366307686,                             ! Version Timestamp
  {e5ff77a6-195a-4c5d-bca1-22201a15e190}; ! Name of Object 1

