
OS:Version,
  {c8d8cdc4-f4bd-4824-8f20-b59e96f8520b}, ! Handle
  0.9.3;                                  ! Version Identifier

OS:SizingPeriod:DesignDay,
  {81f1c243-ea1d-49fa-b2a1-b2973352177d}, ! Handle
  Sioux Falls Ann Clg 2% Condns DB=>MWB,  ! Name
  30.2,                                   ! Maximum Dry-Bulb Temperature {C}
  11.5,                                   ! Daily Dry-Bulb Temperature Range {deltaC}
  22,                                     ! Humidity Indicating Conditions at Maximum Dry-Bulb {BasedOnField A3}
  96207,                                  ! Barometric Pressure {Pa}
  6.5,                                    ! Wind Speed {m/s}
  180,                                    ! Wind Direction {deg}
  0,                                      ! Sky Clearness
  0,                                      ! Rain Indicator
  0,                                      ! Snow Indicator
  21,                                     ! Day of Month
  7,                                      ! Month
  SummerDesignDay,                        ! Day Type
  0,                                      ! Daylight Saving Time Indicator
  Wetbulb,                                ! Humidity Indicating Type
  ,                                       ! Humidity Indicating Day Schedule Name
  DefaultMultipliers,                     ! Dry-Bulb Temperature Range Modifier Type
  ,                                       ! Dry-Bulb Temperature Range Modifier Schedule Name
  ASHRAETau,                              ! Solar Model Indicator
  ,                                       ! Beam Solar Day Schedule Name
  ,                                       ! Diffuse Solar Day Schedule Name
  0.392,                                  ! ASHRAE Taub {dimensionless}
  2.283;                                  ! ASHRAE Taud {dimensionless}

OS:ComponentData,
  {574a974d-6283-4975-bf19-9a1d3b156a16}, ! Handle
  Component Data 1,                       ! Name
  {c601b57e-a372-4e77-a3a4-049f90d4dfc0}, ! UUID
  {b499a810-8106-4379-a036-8d710e4da416}, ! Version UUID
  1366310455,                             ! Creation Timestamp
  1366310455,                             ! Version Timestamp
  {81f1c243-ea1d-49fa-b2a1-b2973352177d}; ! Name of Object 1

