
OS:Version,
  {1e2ae112-403f-487c-b372-1291e4d047b1}, ! Handle
  0.9.3;                                  ! Version Identifier

OS:SizingPeriod:DesignDay,
  {48ba1d20-aba7-4e1e-ac18-eba0004bce10}, ! Handle
  Sault Ste Marie Ann Htg 99.6% Condns DB, ! Name
  -24,                                    ! Maximum Dry-Bulb Temperature {C}
  0,                                      ! Daily Dry-Bulb Temperature Range {deltaC}
  -24,                                    ! Humidity Indicating Conditions at Maximum Dry-Bulb {BasedOnField A3}
  98698,                                  ! Barometric Pressure {Pa}
  2.4,                                    ! Wind Speed {m/s}
  90,                                     ! Wind Direction {deg}
  0,                                      ! Sky Clearness
  0,                                      ! Rain Indicator
  0,                                      ! Snow Indicator
  21,                                     ! Day of Month
  1,                                      ! Month
  WinterDesignDay,                        ! Day Type
  0,                                      ! Daylight Saving Time Indicator
  Wetbulb,                                ! Humidity Indicating Type
  ,                                       ! Humidity Indicating Day Schedule Name
  DefaultMultipliers,                     ! Dry-Bulb Temperature Range Modifier Type
  ,                                       ! Dry-Bulb Temperature Range Modifier Schedule Name
  ASHRAEClearSky;                         ! Solar Model Indicator

OS:ComponentData,
  {e4926030-3df7-41d3-9155-c5aacc5de7a5}, ! Handle
  Component Data 1,                       ! Name
  {b59c6f41-f20a-485d-9604-1195c9643eef}, ! UUID
  {f69f3fd7-df59-46cd-8948-e1a1c0fb32c8}, ! Version UUID
  1366308100,                             ! Creation Timestamp
  1366308100,                             ! Version Timestamp
  {48ba1d20-aba7-4e1e-ac18-eba0004bce10}; ! Name of Object 1

