
OS:Version,
  {49a2baef-0fe7-4137-8e0b-360a1f8e9615}, ! Handle
  0.9.3;                                  ! Version Identifier

OS:SizingPeriod:DesignDay,
  {1d6387b9-47fc-48c0-b7a9-dafab8c76f10}, ! Handle
  Montrose Co  Arpt Ann Clg .4% Condns Enth=>MDB, ! Name
  27.3,                                   ! Maximum Dry-Bulb Temperature {C}
  16.9,                                   ! Daily Dry-Bulb Temperature Range {deltaC}
  57300,                                  ! Humidity Indicating Conditions at Maximum Dry-Bulb {BasedOnField A3}
  81943,                                  ! Barometric Pressure {Pa}
  4.1,                                    ! Wind Speed {m/s}
  340,                                    ! Wind Direction {deg}
  0,                                      ! Sky Clearness
  0,                                      ! Rain Indicator
  0,                                      ! Snow Indicator
  21,                                     ! Day of Month
  7,                                      ! Month
  SummerDesignDay,                        ! Day Type
  0,                                      ! Daylight Saving Time Indicator
  Enthalpy,                               ! Humidity Indicating Type
  ,                                       ! Humidity Indicating Day Schedule Name
  DefaultMultipliers,                     ! Dry-Bulb Temperature Range Modifier Type
  ,                                       ! Dry-Bulb Temperature Range Modifier Schedule Name
  ASHRAETau,                              ! Solar Model Indicator
  ,                                       ! Beam Solar Day Schedule Name
  ,                                       ! Diffuse Solar Day Schedule Name
  0.4,                                    ! ASHRAE Taub {dimensionless}
  2.143;                                  ! ASHRAE Taud {dimensionless}

OS:ComponentData,
  {e7ca2b48-682d-4c33-b07b-d6cf4c61b264}, ! Handle
  Component Data 1,                       ! Name
  {92933fa3-0912-48a2-a97c-d2a8a598794c}, ! UUID
  {f31ad764-0bb5-4e3c-b218-1f0e6d1edeea}, ! Version UUID
  1366306724,                             ! Creation Timestamp
  1366306724,                             ! Version Timestamp
  {1d6387b9-47fc-48c0-b7a9-dafab8c76f10}; ! Name of Object 1

