
OS:Version,
  {eba3b1e7-8efd-4895-8763-e6090af22023}, ! Handle
  0.9.3;                                  ! Version Identifier

OS:SizingPeriod:DesignDay,
  {87c32206-582b-444b-b670-e6391b545c49}, ! Handle
  Sturgeon Bay Ann Clg 1% Condns Enth=>MDB, ! Name
  26.1,                                   ! Maximum Dry-Bulb Temperature {C}
  9.2,                                    ! Daily Dry-Bulb Temperature Range {deltaC}
  64800,                                  ! Humidity Indicating Conditions at Maximum Dry-Bulb {BasedOnField A3}
  98698,                                  ! Barometric Pressure {Pa}
  5.1,                                    ! Wind Speed {m/s}
  240,                                    ! Wind Direction {deg}
  0,                                      ! Sky Clearness
  0,                                      ! Rain Indicator
  0,                                      ! Snow Indicator
  21,                                     ! Day of Month
  7,                                      ! Month
  SummerDesignDay,                        ! Day Type
  0,                                      ! Daylight Saving Time Indicator
  Enthalpy,                               ! Humidity Indicating Type
  ,                                       ! Humidity Indicating Day Schedule Name
  DefaultMultipliers,                     ! Dry-Bulb Temperature Range Modifier Type
  ,                                       ! Dry-Bulb Temperature Range Modifier Schedule Name
  ASHRAETau,                              ! Solar Model Indicator
  ,                                       ! Beam Solar Day Schedule Name
  ,                                       ! Diffuse Solar Day Schedule Name
  0.426,                                  ! ASHRAE Taub {dimensionless}
  2.148;                                  ! ASHRAE Taud {dimensionless}

OS:ComponentData,
  {6408245b-a3b4-49c2-9965-45fa2b91ddea}, ! Handle
  Component Data 1,                       ! Name
  {a61597a6-d452-42a5-ab91-9839a1de4c4b}, ! UUID
  {19b18078-2507-47d1-9546-8e579e22c7eb}, ! Version UUID
  1366311588,                             ! Creation Timestamp
  1366311588,                             ! Version Timestamp
  {87c32206-582b-444b-b670-e6391b545c49}; ! Name of Object 1

