
OS:Version,
  {bd361351-621d-48c3-ab9c-41ab37efc5d5}, ! Handle
  0.9.3;                                  ! Version Identifier

OS:SizingPeriod:DesignDay,
  {dfabbc81-2d00-4fff-9126-4b98494b2d63}, ! Handle
  SAULT_STE. Ann Clg .4% Condns DB=>MWB,  ! Name
  28.7,                                   ! Maximum Dry-Bulb Temperature {C}
  11.7,                                   ! Daily Dry-Bulb Temperature Range {deltaC}
  21.1,                                   ! Humidity Indicating Conditions at Maximum Dry-Bulb {BasedOnField A3}
  98698,                                  ! Barometric Pressure {Pa}
  4.2,                                    ! Wind Speed {m/s}
  220,                                    ! Wind Direction {deg}
  0,                                      ! Sky Clearness
  0,                                      ! Rain Indicator
  0,                                      ! Snow Indicator
  21,                                     ! Day of Month
  7,                                      ! Month
  SummerDesignDay,                        ! Day Type
  0,                                      ! Daylight Saving Time Indicator
  Wetbulb,                                ! Humidity Indicating Type
  ,                                       ! Humidity Indicating Day Schedule Name
  DefaultMultipliers,                     ! Dry-Bulb Temperature Range Modifier Type
  ,                                       ! Dry-Bulb Temperature Range Modifier Schedule Name
  ASHRAETau,                              ! Solar Model Indicator
  ,                                       ! Beam Solar Day Schedule Name
  ,                                       ! Diffuse Solar Day Schedule Name
  0.412,                                  ! ASHRAE Taub {dimensionless}
  2.194;                                  ! ASHRAE Taud {dimensionless}

OS:ComponentData,
  {54637a13-0148-438c-a0d7-29f07baf8eb0}, ! Handle
  Component Data 1,                       ! Name
  {de7f4c0d-983a-4457-8a78-92eb23e6cab4}, ! UUID
  {405aed5b-d4f7-4a13-9575-c03aa721e9ba}, ! Version UUID
  1366308109,                             ! Creation Timestamp
  1366308109,                             ! Version Timestamp
  {dfabbc81-2d00-4fff-9126-4b98494b2d63}; ! Name of Object 1

