
OS:Version,
  {a36ba605-086c-46bb-84d1-97a16f841234}, ! Handle
  0.9.3;                                  ! Version Identifier

OS:SizingPeriod:DesignDay,
  {53ebb4c9-2fa3-4bf8-b2e9-d661983270a9}, ! Handle
  Melbourne Regional Ap Ann Clg 2% Condns DB=>MWB, ! Name
  32.1,                                   ! Maximum Dry-Bulb Temperature {C}
  8.3,                                    ! Daily Dry-Bulb Temperature Range {deltaC}
  25.7,                                   ! Humidity Indicating Conditions at Maximum Dry-Bulb {BasedOnField A3}
  101193,                                 ! Barometric Pressure {Pa}
  4.8,                                    ! Wind Speed {m/s}
  280,                                    ! Wind Direction {deg}
  0,                                      ! Sky Clearness
  0,                                      ! Rain Indicator
  0,                                      ! Snow Indicator
  21,                                     ! Day of Month
  7,                                      ! Month
  SummerDesignDay,                        ! Day Type
  0,                                      ! Daylight Saving Time Indicator
  Wetbulb,                                ! Humidity Indicating Type
  ,                                       ! Humidity Indicating Day Schedule Name
  DefaultMultipliers,                     ! Dry-Bulb Temperature Range Modifier Type
  ,                                       ! Dry-Bulb Temperature Range Modifier Schedule Name
  ASHRAETau,                              ! Solar Model Indicator
  ,                                       ! Beam Solar Day Schedule Name
  ,                                       ! Diffuse Solar Day Schedule Name
  0.499,                                  ! ASHRAE Taub {dimensionless}
  1.991;                                  ! ASHRAE Taud {dimensionless}

OS:ComponentData,
  {e8a37f13-0455-4f24-b40a-4b20de5bb2ed}, ! Handle
  Component Data 1,                       ! Name
  {a677ed42-553d-40fd-948f-ff5106991af7}, ! UUID
  {7c7b094d-3703-403a-8242-69f7778b73dd}, ! Version UUID
  1366306853,                             ! Creation Timestamp
  1366306853,                             ! Version Timestamp
  {53ebb4c9-2fa3-4bf8-b2e9-d661983270a9}; ! Name of Object 1

