
OS:Version,
  {65523a9b-fbef-4d17-8315-fc85948ce237}, ! Handle
  0.9.3;                                  ! Version Identifier

OS:SizingPeriod:DesignDay,
  {8b568b9d-fea8-4a6c-9ef3-9311e7bc6873}, ! Handle
  Philadelphia/Willow Gr Ann Htg Wind 99.6% Condns WS=>MCDB, ! Name
  2.8,                                    ! Maximum Dry-Bulb Temperature {C}
  0,                                      ! Daily Dry-Bulb Temperature Range {deltaC}
  2.8,                                    ! Humidity Indicating Conditions at Maximum Dry-Bulb {BasedOnField A3}
  100011,                                 ! Barometric Pressure {Pa}
  12.7,                                   ! Wind Speed {m/s}
  290,                                    ! Wind Direction {deg}
  0,                                      ! Sky Clearness
  0,                                      ! Rain Indicator
  0,                                      ! Snow Indicator
  21,                                     ! Day of Month
  1,                                      ! Month
  WinterDesignDay,                        ! Day Type
  0,                                      ! Daylight Saving Time Indicator
  Wetbulb,                                ! Humidity Indicating Type
  ,                                       ! Humidity Indicating Day Schedule Name
  DefaultMultipliers,                     ! Dry-Bulb Temperature Range Modifier Type
  ,                                       ! Dry-Bulb Temperature Range Modifier Schedule Name
  ASHRAEClearSky;                         ! Solar Model Indicator

OS:ComponentData,
  {7773cf8c-fdb1-4a9b-9335-aa3d3d859294}, ! Handle
  Component Data 1,                       ! Name
  {44f47673-3118-4e79-84e3-6e95fe0f7c81}, ! UUID
  {63eff6aa-4bd9-44b7-8617-c8c3743bad50}, ! Version UUID
  1366310218,                             ! Creation Timestamp
  1366310218,                             ! Version Timestamp
  {8b568b9d-fea8-4a6c-9ef3-9311e7bc6873}; ! Name of Object 1

