
OS:Version,
  {f2051052-eda8-4519-9e48-b03be85e9878}, ! Handle
  0.9.3;                                  ! Version Identifier

OS:SizingPeriod:DesignDay,
  {16f1d9d9-0230-4d4d-a7e4-7384696e6155}, ! Handle
  YAKUTAT Ann Hum_n 99% Condns DP=>MCDB,  ! Name
  -10.9,                                  ! Maximum Dry-Bulb Temperature {C}
  0,                                      ! Daily Dry-Bulb Temperature Range {deltaC}
  -19.8,                                  ! Humidity Indicating Conditions at Maximum Dry-Bulb {BasedOnField A3}
  101217,                                 ! Barometric Pressure {Pa}
  0.8,                                    ! Wind Speed {m/s}
  100,                                    ! Wind Direction {deg}
  0,                                      ! Sky Clearness
  0,                                      ! Rain Indicator
  0,                                      ! Snow Indicator
  21,                                     ! Day of Month
  1,                                      ! Month
  WinterDesignDay,                        ! Day Type
  0,                                      ! Daylight Saving Time Indicator
  Dewpoint,                               ! Humidity Indicating Type
  ,                                       ! Humidity Indicating Day Schedule Name
  DefaultMultipliers,                     ! Dry-Bulb Temperature Range Modifier Type
  ,                                       ! Dry-Bulb Temperature Range Modifier Schedule Name
  ASHRAEClearSky;                         ! Solar Model Indicator

OS:ComponentData,
  {c8ac1bd1-f1ea-4eaf-a2c9-c43d2b35f29d}, ! Handle
  Component Data 1,                       ! Name
  {bed6a7b4-d71f-42f3-b0df-3e617b88c061}, ! UUID
  {ea7085cb-dfd1-4b07-acbb-ad17f73b01ad}, ! Version UUID
  1366305620,                             ! Creation Timestamp
  1366305620,                             ! Version Timestamp
  {16f1d9d9-0230-4d4d-a7e4-7384696e6155}; ! Name of Object 1

