
OS:Version,
  {080d8d76-74ff-4902-89e5-2e2d4652fa7a}, ! Handle
  0.9.3;                                  ! Version Identifier

OS:SizingPeriod:DesignDay,
  {8b30a8ea-0ce5-4157-93a7-5466216a7096}, ! Handle
  SAN_DIEGO Ann Clg .4% Condns DP=>MDB,   ! Name
  25.1,                                   ! Maximum Dry-Bulb Temperature {C}
  4.9,                                    ! Daily Dry-Bulb Temperature Range {deltaC}
  21.4,                                   ! Humidity Indicating Conditions at Maximum Dry-Bulb {BasedOnField A3}
  101217,                                 ! Barometric Pressure {Pa}
  4.6,                                    ! Wind Speed {m/s}
  300,                                    ! Wind Direction {deg}
  0,                                      ! Sky Clearness
  0,                                      ! Rain Indicator
  0,                                      ! Snow Indicator
  21,                                     ! Day of Month
  8,                                      ! Month
  SummerDesignDay,                        ! Day Type
  0,                                      ! Daylight Saving Time Indicator
  Dewpoint,                               ! Humidity Indicating Type
  ,                                       ! Humidity Indicating Day Schedule Name
  DefaultMultipliers,                     ! Dry-Bulb Temperature Range Modifier Type
  ,                                       ! Dry-Bulb Temperature Range Modifier Schedule Name
  ASHRAETau,                              ! Solar Model Indicator
  ,                                       ! Beam Solar Day Schedule Name
  ,                                       ! Diffuse Solar Day Schedule Name
  0.426,                                  ! ASHRAE Taub {dimensionless}
  2.214;                                  ! ASHRAE Taud {dimensionless}

OS:ComponentData,
  {1302503a-8a8a-4925-94fe-6bbb87b7e3be}, ! Handle
  Component Data 1,                       ! Name
  {84af5dc6-4e27-45eb-acd2-de1393e2236f}, ! UUID
  {b69f32aa-a0fb-420f-8907-49f4d5a6f285}, ! Version UUID
  1366306586,                             ! Creation Timestamp
  1366306586,                             ! Version Timestamp
  {8b30a8ea-0ce5-4157-93a7-5466216a7096}; ! Name of Object 1

