
OS:Version,
  {b8b52b37-6526-4777-b6c8-42a9c4f9c9d4}, ! Handle
  0.9.3;                                  ! Version Identifier

OS:SizingPeriod:DesignDay,
  {27d8980e-a22b-47eb-9b4a-b3a23b40084a}, ! Handle
  Tulsa International Airport Ann Htg 99% Condns DB, ! Name
  -8.4,                                   ! Maximum Dry-Bulb Temperature {C}
  0,                                      ! Daily Dry-Bulb Temperature Range {deltaC}
  -8.4,                                   ! Humidity Indicating Conditions at Maximum Dry-Bulb {BasedOnField A3}
  98969,                                  ! Barometric Pressure {Pa}
  4.3,                                    ! Wind Speed {m/s}
  0,                                      ! Wind Direction {deg}
  0,                                      ! Sky Clearness
  0,                                      ! Rain Indicator
  0,                                      ! Snow Indicator
  21,                                     ! Day of Month
  1,                                      ! Month
  WinterDesignDay,                        ! Day Type
  0,                                      ! Daylight Saving Time Indicator
  Wetbulb,                                ! Humidity Indicating Type
  ,                                       ! Humidity Indicating Day Schedule Name
  DefaultMultipliers,                     ! Dry-Bulb Temperature Range Modifier Type
  ,                                       ! Dry-Bulb Temperature Range Modifier Schedule Name
  ASHRAEClearSky;                         ! Solar Model Indicator

OS:ComponentData,
  {e1910a25-ca86-4f84-85fc-3fef49a6c8ab}, ! Handle
  Component Data 1,                       ! Name
  {144a9d3d-e31b-4921-95e6-15cae5194cbb}, ! UUID
  {c59390d8-1d5d-41d8-adcb-ec6413c992d6}, ! Version UUID
  1366309957,                             ! Creation Timestamp
  1366309957,                             ! Version Timestamp
  {27d8980e-a22b-47eb-9b4a-b3a23b40084a}; ! Name of Object 1

