
OS:Version,
  {edb534ff-e26e-40e5-9e77-d6a79a7a29b5}, ! Handle
  0.9.3;                                  ! Version Identifier

OS:SizingPeriod:DesignDay,
  {17d14746-5eb2-4378-8e2b-b6bfb826d2b4}, ! Handle
  Omaha/Eppley Airfield Ann Htg Wind 99.6% Condns WS=>MCDB, ! Name
  -8.6,                                   ! Maximum Dry-Bulb Temperature {C}
  0,                                      ! Daily Dry-Bulb Temperature Range {deltaC}
  -8.6,                                   ! Humidity Indicating Conditions at Maximum Dry-Bulb {BasedOnField A3}
  97784,                                  ! Barometric Pressure {Pa}
  13.8,                                   ! Wind Speed {m/s}
  340,                                    ! Wind Direction {deg}
  0,                                      ! Sky Clearness
  0,                                      ! Rain Indicator
  0,                                      ! Snow Indicator
  21,                                     ! Day of Month
  1,                                      ! Month
  WinterDesignDay,                        ! Day Type
  0,                                      ! Daylight Saving Time Indicator
  Wetbulb,                                ! Humidity Indicating Type
  ,                                       ! Humidity Indicating Day Schedule Name
  DefaultMultipliers,                     ! Dry-Bulb Temperature Range Modifier Type
  ,                                       ! Dry-Bulb Temperature Range Modifier Schedule Name
  ASHRAEClearSky;                         ! Solar Model Indicator

OS:ComponentData,
  {c8c5cefa-2c1a-4fb1-b51f-2898abf70982}, ! Handle
  Component Data 1,                       ! Name
  {09701284-131b-435e-b7a0-76d610157285}, ! UUID
  {f2adc900-ca25-487c-8a50-214bf5542edb}, ! Version UUID
  1366309168,                             ! Creation Timestamp
  1366309168,                             ! Version Timestamp
  {17d14746-5eb2-4378-8e2b-b6bfb826d2b4}; ! Name of Object 1

