
OS:Version,
  {33661599-83fa-4b31-af90-96677c557804}, ! Handle
  0.9.3;                                  ! Version Identifier

OS:SizingPeriod:DesignDay,
  {311ec5d4-e599-48aa-a89b-e0eb1760ad0b}, ! Handle
  Riverside Muni Ann Hum_n 99.6% Condns DP=>MCDB, ! Name
  14.5,                                   ! Maximum Dry-Bulb Temperature {C}
  0,                                      ! Daily Dry-Bulb Temperature Range {deltaC}
  -14.9,                                  ! Humidity Indicating Conditions at Maximum Dry-Bulb {BasedOnField A3}
  98287,                                  ! Barometric Pressure {Pa}
  0.9,                                    ! Wind Speed {m/s}
  140,                                    ! Wind Direction {deg}
  0,                                      ! Sky Clearness
  0,                                      ! Rain Indicator
  0,                                      ! Snow Indicator
  21,                                     ! Day of Month
  12,                                     ! Month
  WinterDesignDay,                        ! Day Type
  0,                                      ! Daylight Saving Time Indicator
  Dewpoint,                               ! Humidity Indicating Type
  ,                                       ! Humidity Indicating Day Schedule Name
  DefaultMultipliers,                     ! Dry-Bulb Temperature Range Modifier Type
  ,                                       ! Dry-Bulb Temperature Range Modifier Schedule Name
  ASHRAEClearSky;                         ! Solar Model Indicator

OS:ComponentData,
  {6baa88ac-91b8-46b4-9b60-caf7fd9f4e23}, ! Handle
  Component Data 1,                       ! Name
  {ad09d5a2-0df9-47c1-8f7b-1b25596a209c}, ! UUID
  {ed34ec84-0b76-4e1e-8a03-7d3ccec1cfa1}, ! Version UUID
  1366306557,                             ! Creation Timestamp
  1366306557,                             ! Version Timestamp
  {311ec5d4-e599-48aa-a89b-e0eb1760ad0b}; ! Name of Object 1

