
OS:Version,
  {7a2430b8-3768-4531-8617-c03b6fa37b70}, ! Handle
  0.9.3;                                  ! Version Identifier

OS:SizingPeriod:DesignDay,
  {8acee904-1870-4eeb-a861-3156503a0e0e}, ! Handle
  WORCESTER Ann Clg .4% Condns WB=>MDB,   ! Name
  27.7,                                   ! Maximum Dry-Bulb Temperature {C}
  9,                                      ! Daily Dry-Bulb Temperature Range {deltaC}
  23.4,                                   ! Humidity Indicating Conditions at Maximum Dry-Bulb {BasedOnField A3}
  97761,                                  ! Barometric Pressure {Pa}
  4.6,                                    ! Wind Speed {m/s}
  270,                                    ! Wind Direction {deg}
  0,                                      ! Sky Clearness
  0,                                      ! Rain Indicator
  0,                                      ! Snow Indicator
  21,                                     ! Day of Month
  7,                                      ! Month
  SummerDesignDay,                        ! Day Type
  0,                                      ! Daylight Saving Time Indicator
  Wetbulb,                                ! Humidity Indicating Type
  ,                                       ! Humidity Indicating Day Schedule Name
  DefaultMultipliers,                     ! Dry-Bulb Temperature Range Modifier Type
  ,                                       ! Dry-Bulb Temperature Range Modifier Schedule Name
  ASHRAETau,                              ! Solar Model Indicator
  ,                                       ! Beam Solar Day Schedule Name
  ,                                       ! Diffuse Solar Day Schedule Name
  0.454,                                  ! ASHRAE Taub {dimensionless}
  2.026;                                  ! ASHRAE Taud {dimensionless}

OS:ComponentData,
  {d55f236b-11d9-4192-92cd-ddf27f2f0a86}, ! Handle
  Component Data 1,                       ! Name
  {66822ec0-1a98-4df3-9a28-92481d8c9620}, ! UUID
  {2b8effe9-2fb4-4f84-b898-37f0a3f6a83b}, ! Version UUID
  1366307827,                             ! Creation Timestamp
  1366307827,                             ! Version Timestamp
  {8acee904-1870-4eeb-a861-3156503a0e0e}; ! Name of Object 1

