
OS:Version,
  {a9c00d24-2510-4889-a501-9257d3b45a5c}, ! Handle
  0.9.3;                                  ! Version Identifier

OS:SizingPeriod:DesignDay,
  {78735240-1266-4be3-9876-97e4f09716cb}, ! Handle
  Plymouth Municipal Ann Clg 2% Condns Enth=>MDB, ! Name
  25.9,                                   ! Maximum Dry-Bulb Temperature {C}
  10.5,                                   ! Daily Dry-Bulb Temperature Range {deltaC}
  67400,                                  ! Humidity Indicating Conditions at Maximum Dry-Bulb {BasedOnField A3}
  100786,                                 ! Barometric Pressure {Pa}
  4.9,                                    ! Wind Speed {m/s}
  220,                                    ! Wind Direction {deg}
  0,                                      ! Sky Clearness
  0,                                      ! Rain Indicator
  0,                                      ! Snow Indicator
  21,                                     ! Day of Month
  7,                                      ! Month
  SummerDesignDay,                        ! Day Type
  0,                                      ! Daylight Saving Time Indicator
  Enthalpy,                               ! Humidity Indicating Type
  ,                                       ! Humidity Indicating Day Schedule Name
  DefaultMultipliers,                     ! Dry-Bulb Temperature Range Modifier Type
  ,                                       ! Dry-Bulb Temperature Range Modifier Schedule Name
  ASHRAETau,                              ! Solar Model Indicator
  ,                                       ! Beam Solar Day Schedule Name
  ,                                       ! Diffuse Solar Day Schedule Name
  0.502,                                  ! ASHRAE Taub {dimensionless}
  1.901;                                  ! ASHRAE Taud {dimensionless}

OS:ComponentData,
  {12e8bf93-b562-4494-9183-671137b71d60}, ! Handle
  Component Data 1,                       ! Name
  {4ef04b13-8d98-4bb2-8868-f0dbbd733e70}, ! UUID
  {1d3a3a1e-3af7-4f3c-9e45-24f6bc50e3ce}, ! Version UUID
  1366307819,                             ! Creation Timestamp
  1366307819,                             ! Version Timestamp
  {78735240-1266-4be3-9876-97e4f09716cb}; ! Name of Object 1

