
OS:Version,
  {73cf7955-42c5-429e-8abc-56eab61f0a79}, ! Handle
  0.9.3;                                  ! Version Identifier

OS:SizingPeriod:DesignDay,
  {3aecd36e-1cd5-400a-9c66-a36b6508af43}, ! Handle
  Mount Vernon  Awos Ann Clg .4% Condns DP=>MDB, ! Name
  29.8,                                   ! Maximum Dry-Bulb Temperature {C}
  11,                                     ! Daily Dry-Bulb Temperature Range {deltaC}
  26,                                     ! Humidity Indicating Conditions at Maximum Dry-Bulb {BasedOnField A3}
  99583,                                  ! Barometric Pressure {Pa}
  3.9,                                    ! Wind Speed {m/s}
  200,                                    ! Wind Direction {deg}
  0,                                      ! Sky Clearness
  0,                                      ! Rain Indicator
  0,                                      ! Snow Indicator
  21,                                     ! Day of Month
  7,                                      ! Month
  SummerDesignDay,                        ! Day Type
  0,                                      ! Daylight Saving Time Indicator
  Dewpoint,                               ! Humidity Indicating Type
  ,                                       ! Humidity Indicating Day Schedule Name
  DefaultMultipliers,                     ! Dry-Bulb Temperature Range Modifier Type
  ,                                       ! Dry-Bulb Temperature Range Modifier Schedule Name
  ASHRAETau,                              ! Solar Model Indicator
  ,                                       ! Beam Solar Day Schedule Name
  ,                                       ! Diffuse Solar Day Schedule Name
  0.484,                                  ! ASHRAE Taub {dimensionless}
  1.959;                                  ! ASHRAE Taud {dimensionless}

OS:ComponentData,
  {bb22d3c9-8245-4a6d-9c7f-58b2dda7b64a}, ! Handle
  Component Data 1,                       ! Name
  {6a1221ed-3a4e-41f2-b418-e86bb5bb784a}, ! UUID
  {79744b48-3f1c-4aa5-bad1-b0b7de3c3c52}, ! Version UUID
  1366307377,                             ! Creation Timestamp
  1366307377,                             ! Version Timestamp
  {3aecd36e-1cd5-400a-9c66-a36b6508af43}; ! Name of Object 1

