
OS:Version,
  {052b1d7e-1ebf-400a-b82d-e13a69e1a0c7}, ! Handle
  0.9.3;                                  ! Version Identifier

OS:SizingPeriod:DesignDay,
  {18602534-6dc8-40d7-87f0-26f1e67369db}, ! Handle
  Marion   Wytheville Ann Clg 1% Condns WB=>MDB, ! Name
  29,                                     ! Maximum Dry-Bulb Temperature {C}
  10.8,                                   ! Daily Dry-Bulb Temperature Range {deltaC}
  22,                                     ! Humidity Indicating Conditions at Maximum Dry-Bulb {BasedOnField A3}
  92299,                                  ! Barometric Pressure {Pa}
  2.5,                                    ! Wind Speed {m/s}
  290,                                    ! Wind Direction {deg}
  0,                                      ! Sky Clearness
  0,                                      ! Rain Indicator
  0,                                      ! Snow Indicator
  21,                                     ! Day of Month
  7,                                      ! Month
  SummerDesignDay,                        ! Day Type
  0,                                      ! Daylight Saving Time Indicator
  Wetbulb,                                ! Humidity Indicating Type
  ,                                       ! Humidity Indicating Day Schedule Name
  DefaultMultipliers,                     ! Dry-Bulb Temperature Range Modifier Type
  ,                                       ! Dry-Bulb Temperature Range Modifier Schedule Name
  ASHRAETau,                              ! Solar Model Indicator
  ,                                       ! Beam Solar Day Schedule Name
  ,                                       ! Diffuse Solar Day Schedule Name
  0.494,                                  ! ASHRAE Taub {dimensionless}
  1.892;                                  ! ASHRAE Taud {dimensionless}

OS:ComponentData,
  {31701010-2442-46f3-88bf-9588911c087b}, ! Handle
  Component Data 1,                       ! Name
  {cb38d380-f9ed-46f7-91cb-350da724f1cc}, ! UUID
  {f689ed9b-ac49-4b16-ad92-6e79c4e28638}, ! Version UUID
  1366311101,                             ! Creation Timestamp
  1366311101,                             ! Version Timestamp
  {18602534-6dc8-40d7-87f0-26f1e67369db}; ! Name of Object 1

