
OS:Version,
  {a8b7a0f1-c1d7-4b30-9497-9c4d4365ee57}, ! Handle
  0.9.3;                                  ! Version Identifier

OS:SizingPeriod:DesignDay,
  {dd2bbd00-86e5-444c-93b6-9ece722cbd9e}, ! Handle
  Phoenix Sky Harbor Intl Ap Ann Htg Wind 99% Condns WS=>MCDB, ! Name
  15.1,                                   ! Maximum Dry-Bulb Temperature {C}
  0,                                      ! Daily Dry-Bulb Temperature Range {deltaC}
  15.1,                                   ! Humidity Indicating Conditions at Maximum Dry-Bulb {BasedOnField A3}
  97342,                                  ! Barometric Pressure {Pa}
  7.3,                                    ! Wind Speed {m/s}
  100,                                    ! Wind Direction {deg}
  0,                                      ! Sky Clearness
  0,                                      ! Rain Indicator
  0,                                      ! Snow Indicator
  21,                                     ! Day of Month
  12,                                     ! Month
  WinterDesignDay,                        ! Day Type
  0,                                      ! Daylight Saving Time Indicator
  Wetbulb,                                ! Humidity Indicating Type
  ,                                       ! Humidity Indicating Day Schedule Name
  DefaultMultipliers,                     ! Dry-Bulb Temperature Range Modifier Type
  ,                                       ! Dry-Bulb Temperature Range Modifier Schedule Name
  ASHRAEClearSky;                         ! Solar Model Indicator

OS:ComponentData,
  {319b04f0-23dc-4f56-9718-1574b264138f}, ! Handle
  Component Data 1,                       ! Name
  {488becd8-ea37-489b-b8f3-efc2c8c1c847}, ! UUID
  {51e2c1f3-5483-4e6c-8e01-d2e7a7c31f14}, ! Version UUID
  1366306294,                             ! Creation Timestamp
  1366306294,                             ! Version Timestamp
  {dd2bbd00-86e5-444c-93b6-9ece722cbd9e}; ! Name of Object 1

