
OS:Version,
  {1d185f0c-61e8-4168-9108-323308468dc4}, ! Handle
  0.9.3;                                  ! Version Identifier

OS:SizingPeriod:DesignDay,
  {75fb9b7a-b3a4-4a76-ad7b-ed865c8a6728}, ! Handle
  Provo Muni  Awos Ann Clg 2% Condns Enth=>MDB, ! Name
  29,                                     ! Maximum Dry-Bulb Temperature {C}
  16.6,                                   ! Daily Dry-Bulb Temperature Range {deltaC}
  55100,                                  ! Humidity Indicating Conditions at Maximum Dry-Bulb {BasedOnField A3}
  85924,                                  ! Barometric Pressure {Pa}
  2.8,                                    ! Wind Speed {m/s}
  150,                                    ! Wind Direction {deg}
  0,                                      ! Sky Clearness
  0,                                      ! Rain Indicator
  0,                                      ! Snow Indicator
  21,                                     ! Day of Month
  7,                                      ! Month
  SummerDesignDay,                        ! Day Type
  0,                                      ! Daylight Saving Time Indicator
  Enthalpy,                               ! Humidity Indicating Type
  ,                                       ! Humidity Indicating Day Schedule Name
  DefaultMultipliers,                     ! Dry-Bulb Temperature Range Modifier Type
  ,                                       ! Dry-Bulb Temperature Range Modifier Schedule Name
  ASHRAETau,                              ! Solar Model Indicator
  ,                                       ! Beam Solar Day Schedule Name
  ,                                       ! Diffuse Solar Day Schedule Name
  0.425,                                  ! ASHRAE Taub {dimensionless}
  2.042;                                  ! ASHRAE Taud {dimensionless}

