
OS:Version,
  {d6a61c01-5a10-4971-9d23-50f0a5263eff}, ! Handle
  0.9.3;                                  ! Version Identifier

OS:SizingPeriod:DesignDay,
  {5aa1a4f3-6133-47a2-8498-131a23a16093}, ! Handle
  POCATELLO Ann Htg Wind 99.6% Condns WS=>MCDB, ! Name
  3.3,                                    ! Maximum Dry-Bulb Temperature {C}
  0,                                      ! Daily Dry-Bulb Temperature Range {deltaC}
  3.3,                                    ! Humidity Indicating Conditions at Maximum Dry-Bulb {BasedOnField A3}
  85966,                                  ! Barometric Pressure {Pa}
  14.6,                                   ! Wind Speed {m/s}
  30,                                     ! Wind Direction {deg}
  0,                                      ! Sky Clearness
  0,                                      ! Rain Indicator
  0,                                      ! Snow Indicator
  21,                                     ! Day of Month
  12,                                     ! Month
  WinterDesignDay,                        ! Day Type
  0,                                      ! Daylight Saving Time Indicator
  Wetbulb,                                ! Humidity Indicating Type
  ,                                       ! Humidity Indicating Day Schedule Name
  DefaultMultipliers,                     ! Dry-Bulb Temperature Range Modifier Type
  ,                                       ! Dry-Bulb Temperature Range Modifier Schedule Name
  ASHRAEClearSky;                         ! Solar Model Indicator

OS:ComponentData,
  {cd886554-8314-43ac-b210-e52ed55b7004}, ! Handle
  Component Data 1,                       ! Name
  {100112eb-0b50-456d-a401-f0c495dccb5c}, ! UUID
  {4e3b7ae3-2cd8-458f-bc1b-e75c571a2f8b}, ! Version UUID
  1366307298,                             ! Creation Timestamp
  1366307298,                             ! Version Timestamp
  {5aa1a4f3-6133-47a2-8498-131a23a16093}; ! Name of Object 1

