
OS:Version,
  {e24b82e6-9f09-4662-bdb2-f9fa43ec36d1}, ! Handle
  0.9.3;                                  ! Version Identifier

OS:SizingPeriod:DesignDay,
  {5b7d5ffd-3d77-4192-a987-f161b8cfbf87}, ! Handle
  Phoenix Sky Harbor Intl Ap Ann Hum_n 99.6% Condns DP=>MCDB, ! Name
  15.4,                                   ! Maximum Dry-Bulb Temperature {C}
  0,                                      ! Daily Dry-Bulb Temperature Range {deltaC}
  -14.5,                                  ! Humidity Indicating Conditions at Maximum Dry-Bulb {BasedOnField A3}
  97342,                                  ! Barometric Pressure {Pa}
  1.7,                                    ! Wind Speed {m/s}
  100,                                    ! Wind Direction {deg}
  0,                                      ! Sky Clearness
  0,                                      ! Rain Indicator
  0,                                      ! Snow Indicator
  21,                                     ! Day of Month
  12,                                     ! Month
  WinterDesignDay,                        ! Day Type
  0,                                      ! Daylight Saving Time Indicator
  Dewpoint,                               ! Humidity Indicating Type
  ,                                       ! Humidity Indicating Day Schedule Name
  DefaultMultipliers,                     ! Dry-Bulb Temperature Range Modifier Type
  ,                                       ! Dry-Bulb Temperature Range Modifier Schedule Name
  ASHRAEClearSky;                         ! Solar Model Indicator

OS:ComponentData,
  {e0b8bccd-0d51-42c0-8f00-4590b7d11960}, ! Handle
  Component Data 1,                       ! Name
  {38993e3c-05fb-4e99-8f8e-39f5c1745cd6}, ! UUID
  {b4ab2ef2-5a17-4360-9fd1-1226948c3524}, ! Version UUID
  1366306294,                             ! Creation Timestamp
  1366306294,                             ! Version Timestamp
  {5b7d5ffd-3d77-4192-a987-f161b8cfbf87}; ! Name of Object 1

