
OS:Version,
  {28e1a073-534f-41e0-ab39-b35471446677}, ! Handle
  0.9.3;                                  ! Version Identifier

OS:SizingPeriod:DesignDay,
  {6f648e7e-c26e-4d45-adb7-ac4c18009239}, ! Handle
  Memphis Ann Clg 1% Condns DP=>MDB,      ! Name
  29.4,                                   ! Maximum Dry-Bulb Temperature {C}
  9.2,                                    ! Daily Dry-Bulb Temperature Range {deltaC}
  24.6,                                   ! Humidity Indicating Conditions at Maximum Dry-Bulb {BasedOnField A3}
  100284,                                 ! Barometric Pressure {Pa}
  3.8,                                    ! Wind Speed {m/s}
  240,                                    ! Wind Direction {deg}
  0,                                      ! Sky Clearness
  0,                                      ! Rain Indicator
  0,                                      ! Snow Indicator
  21,                                     ! Day of Month
  7,                                      ! Month
  SummerDesignDay,                        ! Day Type
  0,                                      ! Daylight Saving Time Indicator
  Dewpoint,                               ! Humidity Indicating Type
  ,                                       ! Humidity Indicating Day Schedule Name
  DefaultMultipliers,                     ! Dry-Bulb Temperature Range Modifier Type
  ,                                       ! Dry-Bulb Temperature Range Modifier Schedule Name
  ASHRAETau,                              ! Solar Model Indicator
  ,                                       ! Beam Solar Day Schedule Name
  ,                                       ! Diffuse Solar Day Schedule Name
  0.512,                                  ! ASHRAE Taub {dimensionless}
  1.892;                                  ! ASHRAE Taud {dimensionless}

OS:ComponentData,
  {45c8303b-215c-4a17-aa02-d9fb68899e56}, ! Handle
  Component Data 1,                       ! Name
  {9c101452-6453-405f-9510-93287be90e49}, ! UUID
  {ca3dbb2a-3b62-4329-84dd-7fdbeefc9caa}, ! Version UUID
  1366310526,                             ! Creation Timestamp
  1366310526,                             ! Version Timestamp
  {6f648e7e-c26e-4d45-adb7-ac4c18009239}; ! Name of Object 1

