
OS:Version,
  {3ca6e42b-bcef-4064-9173-08e945614568}, ! Handle
  0.9.3;                                  ! Version Identifier

OS:SizingPeriod:DesignDay,
  {ee34e872-d1dd-49e2-a981-c363d2cd8874}, ! Handle
  Melbourne Regional Ap Ann Clg .4% Condns DP=>MDB, ! Name
  29.6,                                   ! Maximum Dry-Bulb Temperature {C}
  8.3,                                    ! Daily Dry-Bulb Temperature Range {deltaC}
  26.5,                                   ! Humidity Indicating Conditions at Maximum Dry-Bulb {BasedOnField A3}
  101193,                                 ! Barometric Pressure {Pa}
  4.8,                                    ! Wind Speed {m/s}
  280,                                    ! Wind Direction {deg}
  0,                                      ! Sky Clearness
  0,                                      ! Rain Indicator
  0,                                      ! Snow Indicator
  21,                                     ! Day of Month
  7,                                      ! Month
  SummerDesignDay,                        ! Day Type
  0,                                      ! Daylight Saving Time Indicator
  Dewpoint,                               ! Humidity Indicating Type
  ,                                       ! Humidity Indicating Day Schedule Name
  DefaultMultipliers,                     ! Dry-Bulb Temperature Range Modifier Type
  ,                                       ! Dry-Bulb Temperature Range Modifier Schedule Name
  ASHRAETau,                              ! Solar Model Indicator
  ,                                       ! Beam Solar Day Schedule Name
  ,                                       ! Diffuse Solar Day Schedule Name
  0.499,                                  ! ASHRAE Taub {dimensionless}
  1.991;                                  ! ASHRAE Taud {dimensionless}

OS:ComponentData,
  {37bf5ac4-3cb2-4871-ab3a-05b6920fc4c1}, ! Handle
  Component Data 1,                       ! Name
  {cf9c3047-482d-4879-a091-dba585894bb7}, ! UUID
  {f44715e6-9d8e-4574-941e-16fdabc933bf}, ! Version UUID
  1366306853,                             ! Creation Timestamp
  1366306853,                             ! Version Timestamp
  {ee34e872-d1dd-49e2-a981-c363d2cd8874}; ! Name of Object 1

