
OS:Version,
  {d3fce081-9709-4f4b-8381-7b876dd47caa}, ! Handle
  0.9.3;                                  ! Version Identifier

OS:SizingPeriod:DesignDay,
  {643007ed-c781-4d15-8a17-486b716a38df}, ! Handle
  Melbourne Regional Ap Ann Clg .4% Condns DP=>MDB, ! Name
  29.6,                                   ! Maximum Dry-Bulb Temperature {C}
  8.3,                                    ! Daily Dry-Bulb Temperature Range {deltaC}
  26.5,                                   ! Humidity Indicating Conditions at Maximum Dry-Bulb {BasedOnField A3}
  101193,                                 ! Barometric Pressure {Pa}
  4.8,                                    ! Wind Speed {m/s}
  280,                                    ! Wind Direction {deg}
  0,                                      ! Sky Clearness
  0,                                      ! Rain Indicator
  0,                                      ! Snow Indicator
  21,                                     ! Day of Month
  7,                                      ! Month
  SummerDesignDay,                        ! Day Type
  0,                                      ! Daylight Saving Time Indicator
  Dewpoint,                               ! Humidity Indicating Type
  ,                                       ! Humidity Indicating Day Schedule Name
  DefaultMultipliers,                     ! Dry-Bulb Temperature Range Modifier Type
  ,                                       ! Dry-Bulb Temperature Range Modifier Schedule Name
  ASHRAETau,                              ! Solar Model Indicator
  ,                                       ! Beam Solar Day Schedule Name
  ,                                       ! Diffuse Solar Day Schedule Name
  0.499,                                  ! ASHRAE Taub {dimensionless}
  1.991;                                  ! ASHRAE Taud {dimensionless}

