
OS:Version,
  {cdc68700-bec0-4664-a847-c639d2e4caa4}, ! Handle
  0.9.3;                                  ! Version Identifier

OS:SizingPeriod:DesignDay,
  {a904b78d-1692-46a1-b36d-366395e5eb20}, ! Handle
  Waterville  Awos Ann Clg 1% Condns WB=>MDB, ! Name
  26.5,                                   ! Maximum Dry-Bulb Temperature {C}
  10.6,                                   ! Daily Dry-Bulb Temperature Range {deltaC}
  21.7,                                   ! Humidity Indicating Conditions at Maximum Dry-Bulb {BasedOnField A3}
  100118,                                 ! Barometric Pressure {Pa}
  3.5,                                    ! Wind Speed {m/s}
  240,                                    ! Wind Direction {deg}
  0,                                      ! Sky Clearness
  0,                                      ! Rain Indicator
  0,                                      ! Snow Indicator
  21,                                     ! Day of Month
  7,                                      ! Month
  SummerDesignDay,                        ! Day Type
  0,                                      ! Daylight Saving Time Indicator
  Wetbulb,                                ! Humidity Indicating Type
  ,                                       ! Humidity Indicating Day Schedule Name
  DefaultMultipliers,                     ! Dry-Bulb Temperature Range Modifier Type
  ,                                       ! Dry-Bulb Temperature Range Modifier Schedule Name
  ASHRAETau,                              ! Solar Model Indicator
  ,                                       ! Beam Solar Day Schedule Name
  ,                                       ! Diffuse Solar Day Schedule Name
  0.457,                                  ! ASHRAE Taub {dimensionless}
  2.007;                                  ! ASHRAE Taud {dimensionless}

OS:ComponentData,
  {e71fe577-1da8-48c3-89f1-10e2c7d66981}, ! Handle
  Component Data 1,                       ! Name
  {fc7b3f87-3dc1-428f-b111-ba9ca92cea2e}, ! UUID
  {fbd1bc1b-0b04-4cbd-912f-8b4ee554c6fc}, ! Version UUID
  1366307930,                             ! Creation Timestamp
  1366307930,                             ! Version Timestamp
  {a904b78d-1692-46a1-b36d-366395e5eb20}; ! Name of Object 1

