
OS:Version,
  {b0e6f4b8-db87-4f92-8a29-b91c2ebf749e}, ! Handle
  0.9.3;                                  ! Version Identifier

OS:SizingPeriod:DesignDay,
  {f90ce85b-89f7-421a-8851-87cfef91b5ef}, ! Handle
  MIAMI Ann Htg 99.6% Condns DB,          ! Name
  8.7,                                    ! Maximum Dry-Bulb Temperature {C}
  0,                                      ! Daily Dry-Bulb Temperature Range {deltaC}
  8.7,                                    ! Humidity Indicating Conditions at Maximum Dry-Bulb {BasedOnField A3}
  101301,                                 ! Barometric Pressure {Pa}
  3.8,                                    ! Wind Speed {m/s}
  340,                                    ! Wind Direction {deg}
  0,                                      ! Sky Clearness
  0,                                      ! Rain Indicator
  0,                                      ! Snow Indicator
  21,                                     ! Day of Month
  1,                                      ! Month
  WinterDesignDay,                        ! Day Type
  0,                                      ! Daylight Saving Time Indicator
  Wetbulb,                                ! Humidity Indicating Type
  ,                                       ! Humidity Indicating Day Schedule Name
  DefaultMultipliers,                     ! Dry-Bulb Temperature Range Modifier Type
  ,                                       ! Dry-Bulb Temperature Range Modifier Schedule Name
  ASHRAEClearSky;                         ! Solar Model Indicator

OS:ComponentData,
  {a4d641a6-d7bb-4a8b-b163-36b5f3c2f674}, ! Handle
  Component Data 1,                       ! Name
  {1444725a-7894-4e45-9b38-3da3adb0c810}, ! UUID
  {f6abc5be-f204-40b8-8434-4a21d2255512}, ! Version UUID
  1366306859,                             ! Creation Timestamp
  1366306859,                             ! Version Timestamp
  {f90ce85b-89f7-421a-8851-87cfef91b5ef}; ! Name of Object 1

