
OS:Version,
  {01895d12-2ee4-423a-93a6-e5b2e4a587f9}, ! Handle
  0.9.3;                                  ! Version Identifier

OS:SizingPeriod:DesignDay,
  {6bfe8427-b314-4e9a-a0d7-b85aba759215}, ! Handle
  Pensacola Forest Sherman Nas Ann Hum_n 99% Condns DP=>MCDB, ! Name
  3.3,                                    ! Maximum Dry-Bulb Temperature {C}
  0,                                      ! Daily Dry-Bulb Temperature Range {deltaC}
  -7.9,                                   ! Humidity Indicating Conditions at Maximum Dry-Bulb {BasedOnField A3}
  101205,                                 ! Barometric Pressure {Pa}
  3.4,                                    ! Wind Speed {m/s}
  0,                                      ! Wind Direction {deg}
  0,                                      ! Sky Clearness
  0,                                      ! Rain Indicator
  0,                                      ! Snow Indicator
  21,                                     ! Day of Month
  1,                                      ! Month
  WinterDesignDay,                        ! Day Type
  0,                                      ! Daylight Saving Time Indicator
  Dewpoint,                               ! Humidity Indicating Type
  ,                                       ! Humidity Indicating Day Schedule Name
  DefaultMultipliers,                     ! Dry-Bulb Temperature Range Modifier Type
  ,                                       ! Dry-Bulb Temperature Range Modifier Schedule Name
  ASHRAEClearSky;                         ! Solar Model Indicator

OS:ComponentData,
  {244b902a-dd29-418b-8baa-953fa18d6ac8}, ! Handle
  Component Data 1,                       ! Name
  {9ee3d5d7-5636-4491-9509-b6ea87419a8b}, ! UUID
  {b2a14ff8-9eb4-4d69-b250-308ce7ee7970}, ! Version UUID
  1366306901,                             ! Creation Timestamp
  1366306901,                             ! Version Timestamp
  {6bfe8427-b314-4e9a-a0d7-b85aba759215}; ! Name of Object 1

