
OS:Version,
  {0325443d-cbfc-48d1-baba-60e325f2fa5a}, ! Handle
  0.9.3;                                  ! Version Identifier

OS:SizingPeriod:DesignDay,
  {5328724f-b7f8-40c7-a0b6-0ff824ee34a4}, ! Handle
  Valentine Miller Field Ann Clg .4% Condns DP=>MDB, ! Name
  26.7,                                   ! Maximum Dry-Bulb Temperature {C}
  14.7,                                   ! Daily Dry-Bulb Temperature Range {deltaC}
  20.7,                                   ! Humidity Indicating Conditions at Maximum Dry-Bulb {BasedOnField A3}
  92199,                                  ! Barometric Pressure {Pa}
  6.5,                                    ! Wind Speed {m/s}
  170,                                    ! Wind Direction {deg}
  0,                                      ! Sky Clearness
  0,                                      ! Rain Indicator
  0,                                      ! Snow Indicator
  21,                                     ! Day of Month
  7,                                      ! Month
  SummerDesignDay,                        ! Day Type
  0,                                      ! Daylight Saving Time Indicator
  Dewpoint,                               ! Humidity Indicating Type
  ,                                       ! Humidity Indicating Day Schedule Name
  DefaultMultipliers,                     ! Dry-Bulb Temperature Range Modifier Type
  ,                                       ! Dry-Bulb Temperature Range Modifier Schedule Name
  ASHRAETau,                              ! Solar Model Indicator
  ,                                       ! Beam Solar Day Schedule Name
  ,                                       ! Diffuse Solar Day Schedule Name
  0.416,                                  ! ASHRAE Taub {dimensionless}
  2.126;                                  ! ASHRAE Taud {dimensionless}

OS:ComponentData,
  {c1572e43-9a88-4aa0-bcd5-5c9ee73023e0}, ! Handle
  Component Data 1,                       ! Name
  {dcbde765-ab0e-439d-a641-5d5d3fedef24}, ! UUID
  {5a3cc051-7c34-4a0d-a8f7-34bddac2746f}, ! Version UUID
  1366309211,                             ! Creation Timestamp
  1366309211,                             ! Version Timestamp
  {5328724f-b7f8-40c7-a0b6-0ff824ee34a4}; ! Name of Object 1

