
OS:Version,
  {1637f5b8-5c19-4f21-bc50-6660c08924cd}, ! Handle
  0.9.3;                                  ! Version Identifier

OS:SizingPeriod:DesignDay,
  {84c53ead-6edd-4126-a36f-57f77458a209}, ! Handle
  Topeka Ann Clg 2% Condns WB=>MDB,       ! Name
  31.2,                                   ! Maximum Dry-Bulb Temperature {C}
  11.3,                                   ! Daily Dry-Bulb Temperature Range {deltaC}
  24.8,                                   ! Humidity Indicating Conditions at Maximum Dry-Bulb {BasedOnField A3}
  98123,                                  ! Barometric Pressure {Pa}
  4.9,                                    ! Wind Speed {m/s}
  200,                                    ! Wind Direction {deg}
  0,                                      ! Sky Clearness
  0,                                      ! Rain Indicator
  0,                                      ! Snow Indicator
  21,                                     ! Day of Month
  7,                                      ! Month
  SummerDesignDay,                        ! Day Type
  0,                                      ! Daylight Saving Time Indicator
  Wetbulb,                                ! Humidity Indicating Type
  ,                                       ! Humidity Indicating Day Schedule Name
  DefaultMultipliers,                     ! Dry-Bulb Temperature Range Modifier Type
  ,                                       ! Dry-Bulb Temperature Range Modifier Schedule Name
  ASHRAETau,                              ! Solar Model Indicator
  ,                                       ! Beam Solar Day Schedule Name
  ,                                       ! Diffuse Solar Day Schedule Name
  0.434,                                  ! ASHRAE Taub {dimensionless}
  2.183;                                  ! ASHRAE Taud {dimensionless}

OS:ComponentData,
  {9b7c347d-ac62-4247-9e94-b9ca705ede9e}, ! Handle
  Component Data 1,                       ! Name
  {f3352457-02e3-4338-a76b-44816ce0cb67}, ! UUID
  {38cbce6c-1d34-45a2-ae0f-1e8cfe6b0428}, ! Version UUID
  1366307584,                             ! Creation Timestamp
  1366307584,                             ! Version Timestamp
  {84c53ead-6edd-4126-a36f-57f77458a209}; ! Name of Object 1

