
OS:Version,
  {5d355d71-6e33-4865-8a48-c8352933ad43}, ! Handle
  0.9.3;                                  ! Version Identifier

OS:SizingPeriod:DesignDay,
  {21a6c4fc-64af-4053-b83b-f5751ac5ab2b}, ! Handle
  Napa Co  Airport Ann Clg .4% Condns DB=>MWB, ! Name
  32.9,                                   ! Maximum Dry-Bulb Temperature {C}
  13,                                     ! Daily Dry-Bulb Temperature Range {deltaC}
  19.2,                                   ! Humidity Indicating Conditions at Maximum Dry-Bulb {BasedOnField A3}
  101205,                                 ! Barometric Pressure {Pa}
  4.5,                                    ! Wind Speed {m/s}
  210,                                    ! Wind Direction {deg}
  0,                                      ! Sky Clearness
  0,                                      ! Rain Indicator
  0,                                      ! Snow Indicator
  21,                                     ! Day of Month
  7,                                      ! Month
  SummerDesignDay,                        ! Day Type
  0,                                      ! Daylight Saving Time Indicator
  Wetbulb,                                ! Humidity Indicating Type
  ,                                       ! Humidity Indicating Day Schedule Name
  DefaultMultipliers,                     ! Dry-Bulb Temperature Range Modifier Type
  ,                                       ! Dry-Bulb Temperature Range Modifier Schedule Name
  ASHRAETau,                              ! Solar Model Indicator
  ,                                       ! Beam Solar Day Schedule Name
  ,                                       ! Diffuse Solar Day Schedule Name
  0.367,                                  ! ASHRAE Taub {dimensionless}
  2.436;                                  ! ASHRAE Taud {dimensionless}

OS:ComponentData,
  {74e66212-3eee-42ff-9122-caf85f0ff583}, ! Handle
  Component Data 1,                       ! Name
  {bd001b3d-ee7f-4710-9c0a-511ee533e020}, ! UUID
  {ec7a3db6-d7a9-4539-a179-957d1d4ad74f}, ! Version UUID
  1366306517,                             ! Creation Timestamp
  1366306517,                             ! Version Timestamp
  {21a6c4fc-64af-4053-b83b-f5751ac5ab2b}; ! Name of Object 1

