
OS:Version,
  {399eab38-2234-4d54-9bd6-c2c1a523ba74}, ! Handle
  0.9.3;                                  ! Version Identifier

OS:SizingPeriod:DesignDay,
  {1c22d3c8-4552-441b-afcc-6eaa65034f9f}, ! Handle
  Rapid City Regional Arpt Ann Clg 2% Condns WB=>MDB, ! Name
  28.7,                                   ! Maximum Dry-Bulb Temperature {C}
  14.8,                                   ! Daily Dry-Bulb Temperature Range {deltaC}
  19.8,                                   ! Humidity Indicating Conditions at Maximum Dry-Bulb {BasedOnField A3}
  90279,                                  ! Barometric Pressure {Pa}
  6,                                      ! Wind Speed {m/s}
  180,                                    ! Wind Direction {deg}
  0,                                      ! Sky Clearness
  0,                                      ! Rain Indicator
  0,                                      ! Snow Indicator
  21,                                     ! Day of Month
  7,                                      ! Month
  SummerDesignDay,                        ! Day Type
  0,                                      ! Daylight Saving Time Indicator
  Wetbulb,                                ! Humidity Indicating Type
  ,                                       ! Humidity Indicating Day Schedule Name
  DefaultMultipliers,                     ! Dry-Bulb Temperature Range Modifier Type
  ,                                       ! Dry-Bulb Temperature Range Modifier Schedule Name
  ASHRAETau,                              ! Solar Model Indicator
  ,                                       ! Beam Solar Day Schedule Name
  ,                                       ! Diffuse Solar Day Schedule Name
  0.41,                                   ! ASHRAE Taub {dimensionless}
  2.134;                                  ! ASHRAE Taud {dimensionless}

OS:ComponentData,
  {45710392-f5bf-4252-adb8-fa04794d3118}, ! Handle
  Component Data 1,                       ! Name
  {f47839a0-d046-44a5-8a7e-9092b6711e95}, ! UUID
  {293291e8-a141-4ac2-ba70-f68a8172846b}, ! Version UUID
  1366310450,                             ! Creation Timestamp
  1366310450,                             ! Version Timestamp
  {1c22d3c8-4552-441b-afcc-6eaa65034f9f}; ! Name of Object 1

