
OS:Version,
  {f16322c6-f877-443f-9362-9fdebfeeacbc}, ! Handle
  0.9.3;                                  ! Version Identifier

OS:SizingPeriod:DesignDay,
  {4b003b99-bdae-4a1f-a730-a59a6901a6a5}, ! Handle
  Muskegon County Arpt Ann Htg Wind 99% Condns WS=>MCDB, ! Name
  -2.8,                                   ! Maximum Dry-Bulb Temperature {C}
  0,                                      ! Daily Dry-Bulb Temperature Range {deltaC}
  -2.8,                                   ! Humidity Indicating Conditions at Maximum Dry-Bulb {BasedOnField A3}
  99063,                                  ! Barometric Pressure {Pa}
  12,                                     ! Wind Speed {m/s}
  310,                                    ! Wind Direction {deg}
  0,                                      ! Sky Clearness
  0,                                      ! Rain Indicator
  0,                                      ! Snow Indicator
  21,                                     ! Day of Month
  1,                                      ! Month
  WinterDesignDay,                        ! Day Type
  0,                                      ! Daylight Saving Time Indicator
  Wetbulb,                                ! Humidity Indicating Type
  ,                                       ! Humidity Indicating Day Schedule Name
  DefaultMultipliers,                     ! Dry-Bulb Temperature Range Modifier Type
  ,                                       ! Dry-Bulb Temperature Range Modifier Schedule Name
  ASHRAEClearSky;                         ! Solar Model Indicator

OS:ComponentData,
  {eb4f74d9-891d-4fe4-8129-67cdcb529193}, ! Handle
  Component Data 1,                       ! Name
  {e0b81e8c-3759-4792-9fb7-ad7711064cd0}, ! UUID
  {12e23004-fd3c-471c-a9be-a0c37d73a641}, ! Version UUID
  1366308075,                             ! Creation Timestamp
  1366308075,                             ! Version Timestamp
  {4b003b99-bdae-4a1f-a730-a59a6901a6a5}; ! Name of Object 1

