
OS:Version,
  {60313de9-a381-4d46-990b-e13d2c61aa59}, ! Handle
  0.9.3;                                  ! Version Identifier

OS:SizingPeriod:DesignDay,
  {524b59a0-0695-4b6c-9276-557f8f98a5e3}, ! Handle
  Park Rapids Municipal Ap Ann Clg .4% Condns WB=>MDB, ! Name
  28.7,                                   ! Maximum Dry-Bulb Temperature {C}
  11.7,                                   ! Daily Dry-Bulb Temperature Range {deltaC}
  23.5,                                   ! Humidity Indicating Conditions at Maximum Dry-Bulb {BasedOnField A3}
  96184,                                  ! Barometric Pressure {Pa}
  6,                                      ! Wind Speed {m/s}
  170,                                    ! Wind Direction {deg}
  0,                                      ! Sky Clearness
  0,                                      ! Rain Indicator
  0,                                      ! Snow Indicator
  21,                                     ! Day of Month
  7,                                      ! Month
  SummerDesignDay,                        ! Day Type
  0,                                      ! Daylight Saving Time Indicator
  Wetbulb,                                ! Humidity Indicating Type
  ,                                       ! Humidity Indicating Day Schedule Name
  DefaultMultipliers,                     ! Dry-Bulb Temperature Range Modifier Type
  ,                                       ! Dry-Bulb Temperature Range Modifier Schedule Name
  ASHRAETau,                              ! Solar Model Indicator
  ,                                       ! Beam Solar Day Schedule Name
  ,                                       ! Diffuse Solar Day Schedule Name
  0.388,                                  ! ASHRAE Taub {dimensionless}
  2.273;                                  ! ASHRAE Taud {dimensionless}

OS:ComponentData,
  {de60c076-9aef-41ac-8c08-55d81b3fc5dc}, ! Handle
  Component Data 1,                       ! Name
  {9511cb56-5811-4f89-9a4e-1e7dbf201710}, ! UUID
  {7c2b157c-8448-4c71-956f-78a9e78e30c8}, ! Version UUID
  1366308359,                             ! Creation Timestamp
  1366308359,                             ! Version Timestamp
  {524b59a0-0695-4b6c-9276-557f8f98a5e3}; ! Name of Object 1

