
OS:Version,
  {a790b770-8f20-46f2-8367-3629a0dd18a0}, ! Handle
  0.9.3;                                  ! Version Identifier

OS:SizingPeriod:DesignDay,
  {15798357-8cd6-4e8c-b652-82acbff40ce4}, ! Handle
  Marathon Airport Ann Htg 99% Condns DB, ! Name
  13.7,                                   ! Maximum Dry-Bulb Temperature {C}
  0,                                      ! Daily Dry-Bulb Temperature Range {deltaC}
  13.7,                                   ! Humidity Indicating Conditions at Maximum Dry-Bulb {BasedOnField A3}
  101301,                                 ! Barometric Pressure {Pa}
  4.8,                                    ! Wind Speed {m/s}
  0,                                      ! Wind Direction {deg}
  0,                                      ! Sky Clearness
  0,                                      ! Rain Indicator
  0,                                      ! Snow Indicator
  21,                                     ! Day of Month
  1,                                      ! Month
  WinterDesignDay,                        ! Day Type
  0,                                      ! Daylight Saving Time Indicator
  Wetbulb,                                ! Humidity Indicating Type
  ,                                       ! Humidity Indicating Day Schedule Name
  DefaultMultipliers,                     ! Dry-Bulb Temperature Range Modifier Type
  ,                                       ! Dry-Bulb Temperature Range Modifier Schedule Name
  ASHRAEClearSky;                         ! Solar Model Indicator

OS:ComponentData,
  {74f57c9c-4e84-436b-a38e-3b299f912cb1}, ! Handle
  Component Data 1,                       ! Name
  {e90b3e5d-ecfd-4336-84ec-7ba15a5d4f1e}, ! UUID
  {53a0e0d5-7a9e-4e65-9d39-37b0440505c6}, ! Version UUID
  1366306846,                             ! Creation Timestamp
  1366306846,                             ! Version Timestamp
  {15798357-8cd6-4e8c-b652-82acbff40ce4}; ! Name of Object 1

