
OS:Version,
  {eb4fc81d-19de-4589-bb34-02187e9aa071}, ! Handle
  0.9.3;                                  ! Version Identifier

OS:SizingPeriod:DesignDay,
  {1e4e5866-35ee-47aa-8e15-b921f82df713}, ! Handle
  Williston Sloulin Intl Ap Ann Clg .4% Condns DB=>MWB, ! Name
  34.9,                                   ! Maximum Dry-Bulb Temperature {C}
  14.5,                                   ! Daily Dry-Bulb Temperature Range {deltaC}
  19.6,                                   ! Humidity Indicating Conditions at Maximum Dry-Bulb {BasedOnField A3}
  94549,                                  ! Barometric Pressure {Pa}
  5.5,                                    ! Wind Speed {m/s}
  150,                                    ! Wind Direction {deg}
  0,                                      ! Sky Clearness
  0,                                      ! Rain Indicator
  0,                                      ! Snow Indicator
  21,                                     ! Day of Month
  7,                                      ! Month
  SummerDesignDay,                        ! Day Type
  0,                                      ! Daylight Saving Time Indicator
  Wetbulb,                                ! Humidity Indicating Type
  ,                                       ! Humidity Indicating Day Schedule Name
  DefaultMultipliers,                     ! Dry-Bulb Temperature Range Modifier Type
  ,                                       ! Dry-Bulb Temperature Range Modifier Schedule Name
  ASHRAETau,                              ! Solar Model Indicator
  ,                                       ! Beam Solar Day Schedule Name
  ,                                       ! Diffuse Solar Day Schedule Name
  0.388,                                  ! ASHRAE Taub {dimensionless}
  2.236;                                  ! ASHRAE Taud {dimensionless}

OS:ComponentData,
  {3efa6e56-7559-45a4-861a-b909841f6ca1}, ! Handle
  Component Data 1,                       ! Name
  {eca43dc2-7324-40d3-9c1e-bfc4e0cee89e}, ! UUID
  {4da35c89-59fb-464c-88db-73d79be8b349}, ! Version UUID
  1366309072,                             ! Creation Timestamp
  1366309072,                             ! Version Timestamp
  {1e4e5866-35ee-47aa-8e15-b921f82df713}; ! Name of Object 1

