
OS:Version,
  {2c4c2bfd-e428-4140-bfcd-e48715067777}, ! Handle
  0.9.3;                                  ! Version Identifier

OS:SizingPeriod:DesignDay,
  {dd8abac9-3c28-45c3-ab59-6a861c331479}, ! Handle
  Rockport Aransas Co Ann Clg .4% Condns DB=>MWB, ! Name
  33.8,                                   ! Maximum Dry-Bulb Temperature {C}
  7.1,                                    ! Daily Dry-Bulb Temperature Range {deltaC}
  25.9,                                   ! Humidity Indicating Conditions at Maximum Dry-Bulb {BasedOnField A3}
  101229,                                 ! Barometric Pressure {Pa}
  5.3,                                    ! Wind Speed {m/s}
  130,                                    ! Wind Direction {deg}
  0,                                      ! Sky Clearness
  0,                                      ! Rain Indicator
  0,                                      ! Snow Indicator
  21,                                     ! Day of Month
  8,                                      ! Month
  SummerDesignDay,                        ! Day Type
  0,                                      ! Daylight Saving Time Indicator
  Wetbulb,                                ! Humidity Indicating Type
  ,                                       ! Humidity Indicating Day Schedule Name
  DefaultMultipliers,                     ! Dry-Bulb Temperature Range Modifier Type
  ,                                       ! Dry-Bulb Temperature Range Modifier Schedule Name
  ASHRAETau,                              ! Solar Model Indicator
  ,                                       ! Beam Solar Day Schedule Name
  ,                                       ! Diffuse Solar Day Schedule Name
  0.47,                                   ! ASHRAE Taub {dimensionless}
  2.095;                                  ! ASHRAE Taud {dimensionless}

OS:ComponentData,
  {3ab30ec3-d0fc-4c49-b104-586d31840d64}, ! Handle
  Component Data 1,                       ! Name
  {52473418-f650-42ea-8933-c826d59d3bd7}, ! UUID
  {0dccae77-c39d-4d4c-843e-a0b7bedf9d58}, ! Version UUID
  1366310863,                             ! Creation Timestamp
  1366310863,                             ! Version Timestamp
  {dd8abac9-3c28-45c3-ab59-6a861c331479}; ! Name of Object 1

