
OS:Version,
  {acb91251-3c35-4a84-bac1-dcf3f053c295}, ! Handle
  0.9.3;                                  ! Version Identifier

OS:SizingPeriod:DesignDay,
  {3e94bfe4-8b92-434c-b7c7-96ea30efc122}, ! Handle
  WATERLOO Ann Clg 2% Condns WB=>MDB,     ! Name
  28.3,                                   ! Maximum Dry-Bulb Temperature {C}
  11.2,                                   ! Daily Dry-Bulb Temperature Range {deltaC}
  23.8,                                   ! Humidity Indicating Conditions at Maximum Dry-Bulb {BasedOnField A3}
  98182,                                  ! Barometric Pressure {Pa}
  5.5,                                    ! Wind Speed {m/s}
  190,                                    ! Wind Direction {deg}
  0,                                      ! Sky Clearness
  0,                                      ! Rain Indicator
  0,                                      ! Snow Indicator
  21,                                     ! Day of Month
  7,                                      ! Month
  SummerDesignDay,                        ! Day Type
  0,                                      ! Daylight Saving Time Indicator
  Wetbulb,                                ! Humidity Indicating Type
  ,                                       ! Humidity Indicating Day Schedule Name
  DefaultMultipliers,                     ! Dry-Bulb Temperature Range Modifier Type
  ,                                       ! Dry-Bulb Temperature Range Modifier Schedule Name
  ASHRAETau,                              ! Solar Model Indicator
  ,                                       ! Beam Solar Day Schedule Name
  ,                                       ! Diffuse Solar Day Schedule Name
  0.427,                                  ! ASHRAE Taub {dimensionless}
  2.147;                                  ! ASHRAE Taud {dimensionless}

OS:ComponentData,
  {255daa64-bb5a-4ef4-bfb0-bd80866a474d}, ! Handle
  Component Data 1,                       ! Name
  {f589d918-403d-41d3-9ede-7ce396d3ff37}, ! UUID
  {7eebcf6e-eb8a-4abd-aae1-defc25bfe915}, ! Version UUID
  1366307252,                             ! Creation Timestamp
  1366307252,                             ! Version Timestamp
  {3e94bfe4-8b92-434c-b7c7-96ea30efc122}; ! Name of Object 1

