
OS:Version,
  {07d8ce3a-5221-4941-8276-8706ca4a9733}, ! Handle
  0.9.3;                                  ! Version Identifier

OS:SizingPeriod:DesignDay,
  {fbb9c434-853d-42a4-a5f7-4bcba8c539e9}, ! Handle
  Monroe Co Ann Htg 99% Condns DB,        ! Name
  -12.1,                                  ! Maximum Dry-Bulb Temperature {C}
  0,                                      ! Daily Dry-Bulb Temperature Range {deltaC}
  -12.1,                                  ! Humidity Indicating Conditions at Maximum Dry-Bulb {BasedOnField A3}
  98193,                                  ! Barometric Pressure {Pa}
  2.1,                                    ! Wind Speed {m/s}
  220,                                    ! Wind Direction {deg}
  0,                                      ! Sky Clearness
  0,                                      ! Rain Indicator
  0,                                      ! Snow Indicator
  21,                                     ! Day of Month
  1,                                      ! Month
  WinterDesignDay,                        ! Day Type
  0,                                      ! Daylight Saving Time Indicator
  Wetbulb,                                ! Humidity Indicating Type
  ,                                       ! Humidity Indicating Day Schedule Name
  DefaultMultipliers,                     ! Dry-Bulb Temperature Range Modifier Type
  ,                                       ! Dry-Bulb Temperature Range Modifier Schedule Name
  ASHRAEClearSky;                         ! Solar Model Indicator

OS:ComponentData,
  {3cf6ec3b-0595-47d7-a5d7-fa695c449676}, ! Handle
  Component Data 1,                       ! Name
  {27e13776-b61c-4bc1-ac1a-a28fe5b04e4b}, ! UUID
  {493647bf-0bbc-478f-915a-0732ac37c5f3}, ! Version UUID
  1366307474,                             ! Creation Timestamp
  1366307474,                             ! Version Timestamp
  {fbb9c434-853d-42a4-a5f7-4bcba8c539e9}; ! Name of Object 1

