
OS:Version,
  {895c131b-24b8-48c0-822c-fd909f802a9e}, ! Handle
  0.9.3;                                  ! Version Identifier

OS:SizingPeriod:DesignDay,
  {a61dca24-9e7d-4daa-9e3f-8537e290612e}, ! Handle
  William R Fairchild Ann Clg 2% Condns DP=>MDB, ! Name
  17.4,                                   ! Maximum Dry-Bulb Temperature {C}
  9.1,                                    ! Daily Dry-Bulb Temperature Range {deltaC}
  13.7,                                   ! Humidity Indicating Conditions at Maximum Dry-Bulb {BasedOnField A3}
  100237,                                 ! Barometric Pressure {Pa}
  2.1,                                    ! Wind Speed {m/s}
  90,                                     ! Wind Direction {deg}
  0,                                      ! Sky Clearness
  0,                                      ! Rain Indicator
  0,                                      ! Snow Indicator
  21,                                     ! Day of Month
  8,                                      ! Month
  SummerDesignDay,                        ! Day Type
  0,                                      ! Daylight Saving Time Indicator
  Dewpoint,                               ! Humidity Indicating Type
  ,                                       ! Humidity Indicating Day Schedule Name
  DefaultMultipliers,                     ! Dry-Bulb Temperature Range Modifier Type
  ,                                       ! Dry-Bulb Temperature Range Modifier Schedule Name
  ASHRAETau,                              ! Solar Model Indicator
  ,                                       ! Beam Solar Day Schedule Name
  ,                                       ! Diffuse Solar Day Schedule Name
  0.364,                                  ! ASHRAE Taub {dimensionless}
  2.489;                                  ! ASHRAE Taud {dimensionless}

OS:ComponentData,
  {ddf9dda7-5913-456f-8a89-83ace678ebdb}, ! Handle
  Component Data 1,                       ! Name
  {5f818a20-69aa-45c6-b8d6-b12323706788}, ! UUID
  {b36e0d55-c4fe-4bd8-9dbe-2dc32d71942c}, ! Version UUID
  1366311326,                             ! Creation Timestamp
  1366311326,                             ! Version Timestamp
  {a61dca24-9e7d-4daa-9e3f-8537e290612e}; ! Name of Object 1

