
OS:Version,
  {fb80e4ca-14dd-4b1e-bae9-ac4db1701551}, ! Handle
  0.9.3;                                  ! Version Identifier

OS:SizingPeriod:DesignDay,
  {77c82b5d-3416-463c-be32-9432e5421ca8}, ! Handle
  Toledo Ann Hum_n 99% Condns DP=>MCDB,   ! Name
  -13.8,                                  ! Maximum Dry-Bulb Temperature {C}
  0,                                      ! Daily Dry-Bulb Temperature Range {deltaC}
  -18.8,                                  ! Humidity Indicating Conditions at Maximum Dry-Bulb {BasedOnField A3}
  98816,                                  ! Barometric Pressure {Pa}
  4.2,                                    ! Wind Speed {m/s}
  240,                                    ! Wind Direction {deg}
  0,                                      ! Sky Clearness
  0,                                      ! Rain Indicator
  0,                                      ! Snow Indicator
  21,                                     ! Day of Month
  1,                                      ! Month
  WinterDesignDay,                        ! Day Type
  0,                                      ! Daylight Saving Time Indicator
  Dewpoint,                               ! Humidity Indicating Type
  ,                                       ! Humidity Indicating Day Schedule Name
  DefaultMultipliers,                     ! Dry-Bulb Temperature Range Modifier Type
  ,                                       ! Dry-Bulb Temperature Range Modifier Schedule Name
  ASHRAEClearSky;                         ! Solar Model Indicator

OS:ComponentData,
  {decda6b3-811e-4ddf-932a-8bb2fb4802e6}, ! Handle
  Component Data 1,                       ! Name
  {cbd59bb7-f987-4daa-a959-38c965d7d8df}, ! UUID
  {a9442b75-530b-4173-9d90-f65cc283e00a}, ! Version UUID
  1366309850,                             ! Creation Timestamp
  1366309850,                             ! Version Timestamp
  {77c82b5d-3416-463c-be32-9432e5421ca8}; ! Name of Object 1

