
OS:Version,
  {47e798fa-f78d-4e42-bccf-1b9e9e55adee}, ! Handle
  0.9.3;                                  ! Version Identifier

OS:SizingPeriod:DesignDay,
  {f3b14909-bb9e-4ad8-845c-9f95ae4e7264}, ! Handle
  Washington Dc Dulles IntL Ar Ann Clg 1% Condns DB=>MWB, ! Name
  32.7,                                   ! Maximum Dry-Bulb Temperature {C}
  11.4,                                   ! Daily Dry-Bulb Temperature Range {deltaC}
  23.5,                                   ! Humidity Indicating Conditions at Maximum Dry-Bulb {BasedOnField A3}
  100344,                                 ! Barometric Pressure {Pa}
  4,                                      ! Wind Speed {m/s}
  290,                                    ! Wind Direction {deg}
  0,                                      ! Sky Clearness
  0,                                      ! Rain Indicator
  0,                                      ! Snow Indicator
  21,                                     ! Day of Month
  7,                                      ! Month
  SummerDesignDay,                        ! Day Type
  0,                                      ! Daylight Saving Time Indicator
  Wetbulb,                                ! Humidity Indicating Type
  ,                                       ! Humidity Indicating Day Schedule Name
  DefaultMultipliers,                     ! Dry-Bulb Temperature Range Modifier Type
  ,                                       ! Dry-Bulb Temperature Range Modifier Schedule Name
  ASHRAETau,                              ! Solar Model Indicator
  ,                                       ! Beam Solar Day Schedule Name
  ,                                       ! Diffuse Solar Day Schedule Name
  0.544,                                  ! ASHRAE Taub {dimensionless}
  1.787;                                  ! ASHRAE Taud {dimensionless}

OS:ComponentData,
  {a970c915-2021-41ab-96a5-8dfa9ef50c0f}, ! Handle
  Component Data 1,                       ! Name
  {9b7ae160-5482-41f4-865c-89426eaf173c}, ! UUID
  {8852612a-8b12-40bb-9254-2f3941861010}, ! Version UUID
  1366311218,                             ! Creation Timestamp
  1366311218,                             ! Version Timestamp
  {f3b14909-bb9e-4ad8-845c-9f95ae4e7264}; ! Name of Object 1

