
OS:Version,
  {f58607a1-fcf8-46e5-9fac-584badc6dbc1}, ! Handle
  0.9.3;                                  ! Version Identifier

OS:SizingPeriod:DesignDay,
  {265ee043-ce89-494a-9623-f4d089ac2add}, ! Handle
  Zanesville Municipal Ap Ann Hum_n 99.6% Condns DP=>MCDB, ! Name
  -15.5,                                  ! Maximum Dry-Bulb Temperature {C}
  0,                                      ! Daily Dry-Bulb Temperature Range {deltaC}
  -21.4,                                  ! Humidity Indicating Conditions at Maximum Dry-Bulb {BasedOnField A3}
  98147,                                  ! Barometric Pressure {Pa}
  2.9,                                    ! Wind Speed {m/s}
  240,                                    ! Wind Direction {deg}
  0,                                      ! Sky Clearness
  0,                                      ! Rain Indicator
  0,                                      ! Snow Indicator
  21,                                     ! Day of Month
  1,                                      ! Month
  WinterDesignDay,                        ! Day Type
  0,                                      ! Daylight Saving Time Indicator
  Dewpoint,                               ! Humidity Indicating Type
  ,                                       ! Humidity Indicating Day Schedule Name
  DefaultMultipliers,                     ! Dry-Bulb Temperature Range Modifier Type
  ,                                       ! Dry-Bulb Temperature Range Modifier Schedule Name
  ASHRAEClearSky;                         ! Solar Model Indicator

OS:ComponentData,
  {144e632c-c34e-4f65-a1bf-831516af6445}, ! Handle
  Component Data 1,                       ! Name
  {89bc7f27-7883-456f-ac4d-29d087bcab25}, ! UUID
  {dbccc9c6-d120-41be-8ff8-b1f2af8ee281}, ! Version UUID
  1366309873,                             ! Creation Timestamp
  1366309873,                             ! Version Timestamp
  {265ee043-ce89-494a-9623-f4d089ac2add}; ! Name of Object 1

