
OS:Version,
  {70842c57-05f0-40c3-ac95-071d70b94f1d}, ! Handle
  0.9.3;                                  ! Version Identifier

OS:SizingPeriod:DesignDay,
  {64725c4e-caf5-4393-a290-b98a9b5e4996}, ! Handle
  Nashville International Ap Ann Clg .4% Condns WB=>MDB, ! Name
  31.5,                                   ! Maximum Dry-Bulb Temperature {C}
  10.2,                                   ! Daily Dry-Bulb Temperature Range {deltaC}
  25.6,                                   ! Humidity Indicating Conditions at Maximum Dry-Bulb {BasedOnField A3}
  99217,                                  ! Barometric Pressure {Pa}
  3.5,                                    ! Wind Speed {m/s}
  230,                                    ! Wind Direction {deg}
  0,                                      ! Sky Clearness
  0,                                      ! Rain Indicator
  0,                                      ! Snow Indicator
  21,                                     ! Day of Month
  7,                                      ! Month
  SummerDesignDay,                        ! Day Type
  0,                                      ! Daylight Saving Time Indicator
  Wetbulb,                                ! Humidity Indicating Type
  ,                                       ! Humidity Indicating Day Schedule Name
  DefaultMultipliers,                     ! Dry-Bulb Temperature Range Modifier Type
  ,                                       ! Dry-Bulb Temperature Range Modifier Schedule Name
  ASHRAETau,                              ! Solar Model Indicator
  ,                                       ! Beam Solar Day Schedule Name
  ,                                       ! Diffuse Solar Day Schedule Name
  0.524,                                  ! ASHRAE Taub {dimensionless}
  1.855;                                  ! ASHRAE Taud {dimensionless}

OS:ComponentData,
  {b049a94b-d74c-443f-8b43-703d05f3ec1e}, ! Handle
  Component Data 1,                       ! Name
  {6dff1f08-c3fd-4349-a325-871015b9f405}, ! UUID
  {48965ce3-c428-4d1f-bf4a-f48d2e544455}, ! Version UUID
  1366310542,                             ! Creation Timestamp
  1366310542,                             ! Version Timestamp
  {64725c4e-caf5-4393-a290-b98a9b5e4996}; ! Name of Object 1

