
OS:Version,
  {6f7e2dee-4370-4b1c-a42d-1e749fdcc39d}, ! Handle
  0.9.3;                                  ! Version Identifier

OS:SizingPeriod:DesignDay,
  {55f61711-9e5f-438d-a0ec-f9f428086a21}, ! Handle
  Morgantown Hart Field Ann Clg 2% Condns DB=>MWB, ! Name
  29.1,                                   ! Maximum Dry-Bulb Temperature {C}
  10.7,                                   ! Daily Dry-Bulb Temperature Range {deltaC}
  21.3,                                   ! Humidity Indicating Conditions at Maximum Dry-Bulb {BasedOnField A3}
  96866,                                  ! Barometric Pressure {Pa}
  3.2,                                    ! Wind Speed {m/s}
  240,                                    ! Wind Direction {deg}
  0,                                      ! Sky Clearness
  0,                                      ! Rain Indicator
  0,                                      ! Snow Indicator
  21,                                     ! Day of Month
  7,                                      ! Month
  SummerDesignDay,                        ! Day Type
  0,                                      ! Daylight Saving Time Indicator
  Wetbulb,                                ! Humidity Indicating Type
  ,                                       ! Humidity Indicating Day Schedule Name
  DefaultMultipliers,                     ! Dry-Bulb Temperature Range Modifier Type
  ,                                       ! Dry-Bulb Temperature Range Modifier Schedule Name
  ASHRAETau,                              ! Solar Model Indicator
  ,                                       ! Beam Solar Day Schedule Name
  ,                                       ! Diffuse Solar Day Schedule Name
  0.5,                                    ! ASHRAE Taub {dimensionless}
  1.879;                                  ! ASHRAE Taud {dimensionless}

OS:ComponentData,
  {d9dbfe98-9e8a-47ce-bfd5-d96484cb7f43}, ! Handle
  Component Data 1,                       ! Name
  {d435e6fe-c5ae-4993-822e-3aa3dad76038}, ! UUID
  {7283ed25-f5b4-4567-99a9-0dc661013b76}, ! Version UUID
  1366311671,                             ! Creation Timestamp
  1366311671,                             ! Version Timestamp
  {55f61711-9e5f-438d-a0ec-f9f428086a21}; ! Name of Object 1

