
OS:Version,
  {615b9ba5-de05-442d-99c1-334d360b8d77}, ! Handle
  0.9.3;                                  ! Version Identifier

OS:SizingPeriod:DesignDay,
  {dfdbd5ef-b265-4adb-a6b2-18d774c2b958}, ! Handle
  San Angelo Mathis Field Ann Clg 1% Condns Enth=>MDB, ! Name
  30.8,                                   ! Maximum Dry-Bulb Temperature {C}
  12.8,                                   ! Daily Dry-Bulb Temperature Range {deltaC}
  72500,                                  ! Humidity Indicating Conditions at Maximum Dry-Bulb {BasedOnField A3}
  94503,                                  ! Barometric Pressure {Pa}
  4.9,                                    ! Wind Speed {m/s}
  170,                                    ! Wind Direction {deg}
  0,                                      ! Sky Clearness
  0,                                      ! Rain Indicator
  0,                                      ! Snow Indicator
  21,                                     ! Day of Month
  7,                                      ! Month
  SummerDesignDay,                        ! Day Type
  0,                                      ! Daylight Saving Time Indicator
  Enthalpy,                               ! Humidity Indicating Type
  ,                                       ! Humidity Indicating Day Schedule Name
  DefaultMultipliers,                     ! Dry-Bulb Temperature Range Modifier Type
  ,                                       ! Dry-Bulb Temperature Range Modifier Schedule Name
  ASHRAETau,                              ! Solar Model Indicator
  ,                                       ! Beam Solar Day Schedule Name
  ,                                       ! Diffuse Solar Day Schedule Name
  0.454,                                  ! ASHRAE Taub {dimensionless}
  2.053;                                  ! ASHRAE Taud {dimensionless}

OS:ComponentData,
  {d7dfb888-6063-4c0d-a4fc-a510d66af2b1}, ! Handle
  Component Data 1,                       ! Name
  {4009a0c4-881e-4c29-bd84-30cc71747835}, ! UUID
  {e3bc901b-b2a5-412f-8288-2ac13025c5d2}, ! Version UUID
  1366310874,                             ! Creation Timestamp
  1366310874,                             ! Version Timestamp
  {dfdbd5ef-b265-4adb-a6b2-18d774c2b958}; ! Name of Object 1

