
OS:Version,
  {c9c1f039-84cc-4206-aed5-9bef1ad80d93}, ! Handle
  0.9.3;                                  ! Version Identifier

OS:SizingPeriod:DesignDay,
  {947cd3e0-c5da-4678-9955-c86a0519aa75}, ! Handle
  Mount Washington Ann Clg .4% Condns WB=>MDB, ! Name
  15.5,                                   ! Maximum Dry-Bulb Temperature {C}
  4.8,                                    ! Daily Dry-Bulb Temperature Range {deltaC}
  14.8,                                   ! Humidity Indicating Conditions at Maximum Dry-Bulb {BasedOnField A3}
  80387,                                  ! Barometric Pressure {Pa}
  8,                                      ! Wind Speed {m/s}
  280,                                    ! Wind Direction {deg}
  0,                                      ! Sky Clearness
  0,                                      ! Rain Indicator
  0,                                      ! Snow Indicator
  21,                                     ! Day of Month
  7,                                      ! Month
  SummerDesignDay,                        ! Day Type
  0,                                      ! Daylight Saving Time Indicator
  Wetbulb,                                ! Humidity Indicating Type
  ,                                       ! Humidity Indicating Day Schedule Name
  DefaultMultipliers,                     ! Dry-Bulb Temperature Range Modifier Type
  ,                                       ! Dry-Bulb Temperature Range Modifier Schedule Name
  ASHRAETau,                              ! Solar Model Indicator
  ,                                       ! Beam Solar Day Schedule Name
  ,                                       ! Diffuse Solar Day Schedule Name
  0.335,                                  ! ASHRAE Taub {dimensionless}
  2.359;                                  ! ASHRAE Taud {dimensionless}

OS:ComponentData,
  {f960a048-f166-4f9c-9fa6-d6fbac4b5d0d}, ! Handle
  Component Data 1,                       ! Name
  {8057d223-638b-4b6a-aba7-e4c1c8d13f34}, ! UUID
  {4a7c1c1b-3176-4e16-aa60-99b54f4b85cf}, ! Version UUID
  1366309272,                             ! Creation Timestamp
  1366309272,                             ! Version Timestamp
  {947cd3e0-c5da-4678-9955-c86a0519aa75}; ! Name of Object 1

