
OS:Version,
  {e41bb23f-6a7a-4d77-b6bd-2f22a3e15e78}, ! Handle
  0.9.3;                                  ! Version Identifier

OS:SizingPeriod:DesignDay,
  {50138111-9b2d-4937-ba8d-c02ca452ca71}, ! Handle
  Newark International Arpt Ann Clg .4% Condns DP=>MDB, ! Name
  27.8,                                   ! Maximum Dry-Bulb Temperature {C}
  8.9,                                    ! Daily Dry-Bulb Temperature Range {deltaC}
  23.7,                                   ! Humidity Indicating Conditions at Maximum Dry-Bulb {BasedOnField A3}
  101289,                                 ! Barometric Pressure {Pa}
  5.8,                                    ! Wind Speed {m/s}
  250,                                    ! Wind Direction {deg}
  0,                                      ! Sky Clearness
  0,                                      ! Rain Indicator
  0,                                      ! Snow Indicator
  21,                                     ! Day of Month
  7,                                      ! Month
  SummerDesignDay,                        ! Day Type
  0,                                      ! Daylight Saving Time Indicator
  Dewpoint,                               ! Humidity Indicating Type
  ,                                       ! Humidity Indicating Day Schedule Name
  DefaultMultipliers,                     ! Dry-Bulb Temperature Range Modifier Type
  ,                                       ! Dry-Bulb Temperature Range Modifier Schedule Name
  ASHRAETau,                              ! Solar Model Indicator
  ,                                       ! Beam Solar Day Schedule Name
  ,                                       ! Diffuse Solar Day Schedule Name
  0.528,                                  ! ASHRAE Taub {dimensionless}
  1.831;                                  ! ASHRAE Taud {dimensionless}

OS:ComponentData,
  {90ad640e-c81e-4cbb-96f1-74189446c40b}, ! Handle
  Component Data 1,                       ! Name
  {0c22050a-29aa-4782-b507-efc3ff6ba2b1}, ! UUID
  {1567f29e-f8fd-46cb-9709-d960238bdd12}, ! Version UUID
  1366309340,                             ! Creation Timestamp
  1366309340,                             ! Version Timestamp
  {50138111-9b2d-4937-ba8d-c02ca452ca71}; ! Name of Object 1

