
OS:Version,
  {9b717b66-8383-4cd9-900c-b14d440c46f6}, ! Handle
  0.9.3;                                  ! Version Identifier

OS:SizingPeriod:DesignDay,
  {7ee93575-8a50-46ec-bb0b-91409ec1e8ce}, ! Handle
  Winslow Ann Htg 99.6% Condns DB,        ! Name
  -11.6,                                  ! Maximum Dry-Bulb Temperature {C}
  0,                                      ! Daily Dry-Bulb Temperature Range {deltaC}
  -11.6,                                  ! Humidity Indicating Conditions at Maximum Dry-Bulb {BasedOnField A3}
  84660,                                  ! Barometric Pressure {Pa}
  1.6,                                    ! Wind Speed {m/s}
  130,                                    ! Wind Direction {deg}
  0,                                      ! Sky Clearness
  0,                                      ! Rain Indicator
  0,                                      ! Snow Indicator
  21,                                     ! Day of Month
  12,                                     ! Month
  WinterDesignDay,                        ! Day Type
  0,                                      ! Daylight Saving Time Indicator
  Wetbulb,                                ! Humidity Indicating Type
  ,                                       ! Humidity Indicating Day Schedule Name
  DefaultMultipliers,                     ! Dry-Bulb Temperature Range Modifier Type
  ,                                       ! Dry-Bulb Temperature Range Modifier Schedule Name
  ASHRAEClearSky;                         ! Solar Model Indicator

OS:ComponentData,
  {95e7eeda-a7b4-4c5d-9725-2950fc0715d1}, ! Handle
  Component Data 1,                       ! Name
  {4ec3f9e2-2121-48bc-9e45-260d94dcfeb5}, ! UUID
  {f2554082-44c9-4b78-a4c5-d53cedb8252f}, ! Version UUID
  1366306327,                             ! Creation Timestamp
  1366306327,                             ! Version Timestamp
  {7ee93575-8a50-46ec-bb0b-91409ec1e8ce}; ! Name of Object 1

