
OS:Version,
  {48115563-917b-4ccf-b13a-eb874db04ef7}, ! Handle
  0.9.3;                                  ! Version Identifier

OS:SizingPeriod:DesignDay,
  {de344094-9bfa-4ac2-a33a-0010d3870539}, ! Handle
  Youngstown Ann Clg 2% Condns WB=>MDB,   ! Name
  26.6,                                   ! Maximum Dry-Bulb Temperature {C}
  11.5,                                   ! Daily Dry-Bulb Temperature Range {deltaC}
  22.3,                                   ! Humidity Indicating Conditions at Maximum Dry-Bulb {BasedOnField A3}
  97063,                                  ! Barometric Pressure {Pa}
  4.3,                                    ! Wind Speed {m/s}
  230,                                    ! Wind Direction {deg}
  0,                                      ! Sky Clearness
  0,                                      ! Rain Indicator
  0,                                      ! Snow Indicator
  21,                                     ! Day of Month
  7,                                      ! Month
  SummerDesignDay,                        ! Day Type
  0,                                      ! Daylight Saving Time Indicator
  Wetbulb,                                ! Humidity Indicating Type
  ,                                       ! Humidity Indicating Day Schedule Name
  DefaultMultipliers,                     ! Dry-Bulb Temperature Range Modifier Type
  ,                                       ! Dry-Bulb Temperature Range Modifier Schedule Name
  ASHRAETau,                              ! Solar Model Indicator
  ,                                       ! Beam Solar Day Schedule Name
  ,                                       ! Diffuse Solar Day Schedule Name
  0.456,                                  ! ASHRAE Taub {dimensionless}
  2.022;                                  ! ASHRAE Taud {dimensionless}

OS:ComponentData,
  {c4fd4a70-b8dd-4d6b-9484-fd610e43b579}, ! Handle
  Component Data 1,                       ! Name
  {9fa0193d-a79a-4caa-8971-6b12a439f935}, ! UUID
  {eac73e33-130d-46de-a39c-2c80fef72d22}, ! Version UUID
  1366309865,                             ! Creation Timestamp
  1366309865,                             ! Version Timestamp
  {de344094-9bfa-4ac2-a33a-0010d3870539}; ! Name of Object 1

