
OS:Version,
  {a9116fef-43fa-43d9-9e89-691e8e824014}, ! Handle
  0.9.3;                                  ! Version Identifier

OS:SizingPeriod:DesignDay,
  {2e98ce37-aba5-4cf6-ae99-711a7161195b}, ! Handle
  Wrangell Ann Clg 2% Condns DB=>MWB,     ! Name
  18,                                     ! Maximum Dry-Bulb Temperature {C}
  5.6,                                    ! Daily Dry-Bulb Temperature Range {deltaC}
  13.3,                                   ! Humidity Indicating Conditions at Maximum Dry-Bulb {BasedOnField A3}
  101169,                                 ! Barometric Pressure {Pa}
  3.1,                                    ! Wind Speed {m/s}
  310,                                    ! Wind Direction {deg}
  0,                                      ! Sky Clearness
  0,                                      ! Rain Indicator
  0,                                      ! Snow Indicator
  21,                                     ! Day of Month
  7,                                      ! Month
  SummerDesignDay,                        ! Day Type
  0,                                      ! Daylight Saving Time Indicator
  Wetbulb,                                ! Humidity Indicating Type
  ,                                       ! Humidity Indicating Day Schedule Name
  DefaultMultipliers,                     ! Dry-Bulb Temperature Range Modifier Type
  ,                                       ! Dry-Bulb Temperature Range Modifier Schedule Name
  ASHRAETau,                              ! Solar Model Indicator
  ,                                       ! Beam Solar Day Schedule Name
  ,                                       ! Diffuse Solar Day Schedule Name
  0.394,                                  ! ASHRAE Taub {dimensionless}
  2.197;                                  ! ASHRAE Taud {dimensionless}

OS:ComponentData,
  {3580ef0d-302d-4598-ae02-d691406c041b}, ! Handle
  Component Data 1,                       ! Name
  {d2e2432e-afcf-41d5-a841-4f80bf8909a4}, ! UUID
  {c57d43e5-630b-4ef3-9560-7627e0f64e5c}, ! Version UUID
  1366305617,                             ! Creation Timestamp
  1366305617,                             ! Version Timestamp
  {2e98ce37-aba5-4cf6-ae99-711a7161195b}; ! Name of Object 1

