
OS:Version,
  {8fa273f6-780e-4c26-8e13-cde9e138e916}, ! Handle
  0.9.3;                                  ! Version Identifier

OS:SizingPeriod:DesignDay,
  {965e11b1-0dd6-4481-b6dd-fc7f00565c4b}, ! Handle
  West Palm Beach Ann Htg 99.6% Condns DB, ! Name
  6.8,                                    ! Maximum Dry-Bulb Temperature {C}
  0,                                      ! Daily Dry-Bulb Temperature Range {deltaC}
  6.8,                                    ! Humidity Indicating Conditions at Maximum Dry-Bulb {BasedOnField A3}
  101253,                                 ! Barometric Pressure {Pa}
  3.9,                                    ! Wind Speed {m/s}
  320,                                    ! Wind Direction {deg}
  0,                                      ! Sky Clearness
  0,                                      ! Rain Indicator
  0,                                      ! Snow Indicator
  21,                                     ! Day of Month
  1,                                      ! Month
  WinterDesignDay,                        ! Day Type
  0,                                      ! Daylight Saving Time Indicator
  Wetbulb,                                ! Humidity Indicating Type
  ,                                       ! Humidity Indicating Day Schedule Name
  DefaultMultipliers,                     ! Dry-Bulb Temperature Range Modifier Type
  ,                                       ! Dry-Bulb Temperature Range Modifier Schedule Name
  ASHRAEClearSky;                         ! Solar Model Indicator

OS:ComponentData,
  {b455897b-b2bb-44ec-a27d-f915faea232b}, ! Handle
  Component Data 1,                       ! Name
  {db8b9bc7-532e-49e4-af38-b5ed56c6d0fb}, ! UUID
  {4f2fbf90-6894-4b74-8725-10856729d7d5}, ! Version UUID
  1366306951,                             ! Creation Timestamp
  1366306951,                             ! Version Timestamp
  {965e11b1-0dd6-4481-b6dd-fc7f00565c4b}; ! Name of Object 1

