
OS:Version,
  {bb3b2c9b-ebce-4af0-a60b-fe8905821659}, ! Handle
  0.9.3;                                  ! Version Identifier

OS:SizingPeriod:DesignDay,
  {89c4b635-a07b-4717-b020-c9b70c3de816}, ! Handle
  Rapid City Regional Arpt Ann Clg .4% Condns WB=>MDB, ! Name
  29.9,                                   ! Maximum Dry-Bulb Temperature {C}
  14.8,                                   ! Daily Dry-Bulb Temperature Range {deltaC}
  21.7,                                   ! Humidity Indicating Conditions at Maximum Dry-Bulb {BasedOnField A3}
  90279,                                  ! Barometric Pressure {Pa}
  6,                                      ! Wind Speed {m/s}
  180,                                    ! Wind Direction {deg}
  0,                                      ! Sky Clearness
  0,                                      ! Rain Indicator
  0,                                      ! Snow Indicator
  21,                                     ! Day of Month
  7,                                      ! Month
  SummerDesignDay,                        ! Day Type
  0,                                      ! Daylight Saving Time Indicator
  Wetbulb,                                ! Humidity Indicating Type
  ,                                       ! Humidity Indicating Day Schedule Name
  DefaultMultipliers,                     ! Dry-Bulb Temperature Range Modifier Type
  ,                                       ! Dry-Bulb Temperature Range Modifier Schedule Name
  ASHRAETau,                              ! Solar Model Indicator
  ,                                       ! Beam Solar Day Schedule Name
  ,                                       ! Diffuse Solar Day Schedule Name
  0.41,                                   ! ASHRAE Taub {dimensionless}
  2.134;                                  ! ASHRAE Taud {dimensionless}

