
OS:Version,
  {919bcf42-df10-47b7-83fc-22746a167258}, ! Handle
  0.9.3;                                  ! Version Identifier

OS:SizingPeriod:DesignDay,
  {fe449301-f986-4919-8b66-021103e5647b}, ! Handle
  Rapid City Regional Arpt Ann Clg .4% Condns WB=>MDB, ! Name
  29.9,                                   ! Maximum Dry-Bulb Temperature {C}
  14.8,                                   ! Daily Dry-Bulb Temperature Range {deltaC}
  21.7,                                   ! Humidity Indicating Conditions at Maximum Dry-Bulb {BasedOnField A3}
  90279,                                  ! Barometric Pressure {Pa}
  6,                                      ! Wind Speed {m/s}
  180,                                    ! Wind Direction {deg}
  0,                                      ! Sky Clearness
  0,                                      ! Rain Indicator
  0,                                      ! Snow Indicator
  21,                                     ! Day of Month
  7,                                      ! Month
  SummerDesignDay,                        ! Day Type
  0,                                      ! Daylight Saving Time Indicator
  Wetbulb,                                ! Humidity Indicating Type
  ,                                       ! Humidity Indicating Day Schedule Name
  DefaultMultipliers,                     ! Dry-Bulb Temperature Range Modifier Type
  ,                                       ! Dry-Bulb Temperature Range Modifier Schedule Name
  ASHRAETau,                              ! Solar Model Indicator
  ,                                       ! Beam Solar Day Schedule Name
  ,                                       ! Diffuse Solar Day Schedule Name
  0.41,                                   ! ASHRAE Taub {dimensionless}
  2.134;                                  ! ASHRAE Taud {dimensionless}

OS:ComponentData,
  {e31a2e30-04d1-4882-90a5-4b1c7544ad0b}, ! Handle
  Component Data 1,                       ! Name
  {2dd6b5df-378a-4545-b46d-d350d7865782}, ! UUID
  {d51e589f-4f31-4d56-8aa0-1129c2b63356}, ! Version UUID
  1366310450,                             ! Creation Timestamp
  1366310450,                             ! Version Timestamp
  {fe449301-f986-4919-8b66-021103e5647b}; ! Name of Object 1

