
OS:Version,
  {f6c95c6a-c578-4086-93f5-cb6d55cb8dbb}, ! Handle
  0.9.3;                                  ! Version Identifier

OS:SizingPeriod:DesignDay,
  {ba3080f7-88ee-4e3d-b3f6-6f0752518420}, ! Handle
  Mcalester Municipal Ap Ann Htg 99.6% Condns DB, ! Name
  -10.5,                                  ! Maximum Dry-Bulb Temperature {C}
  0,                                      ! Daily Dry-Bulb Temperature Range {deltaC}
  -10.5,                                  ! Humidity Indicating Conditions at Maximum Dry-Bulb {BasedOnField A3}
  98569,                                  ! Barometric Pressure {Pa}
  3.6,                                    ! Wind Speed {m/s}
  0,                                      ! Wind Direction {deg}
  0,                                      ! Sky Clearness
  0,                                      ! Rain Indicator
  0,                                      ! Snow Indicator
  21,                                     ! Day of Month
  1,                                      ! Month
  WinterDesignDay,                        ! Day Type
  0,                                      ! Daylight Saving Time Indicator
  Wetbulb,                                ! Humidity Indicating Type
  ,                                       ! Humidity Indicating Day Schedule Name
  DefaultMultipliers,                     ! Dry-Bulb Temperature Range Modifier Type
  ,                                       ! Dry-Bulb Temperature Range Modifier Schedule Name
  ASHRAEClearSky;                         ! Solar Model Indicator

OS:ComponentData,
  {f34ae177-f942-40b9-a14b-ca75afcb020f}, ! Handle
  Component Data 1,                       ! Name
  {916cb906-5551-4c24-bc54-328521612799}, ! UUID
  {b89a9398-785b-4934-add0-8e3bbfa07e01}, ! Version UUID
  1366309906,                             ! Creation Timestamp
  1366309906,                             ! Version Timestamp
  {ba3080f7-88ee-4e3d-b3f6-6f0752518420}; ! Name of Object 1

