
OS:Version,
  {c5320a1f-3ff0-4fbe-af46-da1ce655d0ea}, ! Handle
  0.9.3;                                  ! Version Identifier

OS:SizingPeriod:DesignDay,
  {00a7fd80-7b65-4996-aa76-fb6d2a867f6f}, ! Handle
  NEW_YORK Ann Clg 1% Condns WB=>MDB,     ! Name
  27.7,                                   ! Maximum Dry-Bulb Temperature {C}
  7.4,                                    ! Daily Dry-Bulb Temperature Range {deltaC}
  24.3,                                   ! Humidity Indicating Conditions at Maximum Dry-Bulb {BasedOnField A3}
  100642,                                 ! Barometric Pressure {Pa}
  5.6,                                    ! Wind Speed {m/s}
  230,                                    ! Wind Direction {deg}
  0,                                      ! Sky Clearness
  0,                                      ! Rain Indicator
  0,                                      ! Snow Indicator
  21,                                     ! Day of Month
  7,                                      ! Month
  SummerDesignDay,                        ! Day Type
  0,                                      ! Daylight Saving Time Indicator
  Wetbulb,                                ! Humidity Indicating Type
  ,                                       ! Humidity Indicating Day Schedule Name
  DefaultMultipliers,                     ! Dry-Bulb Temperature Range Modifier Type
  ,                                       ! Dry-Bulb Temperature Range Modifier Schedule Name
  ASHRAETau,                              ! Solar Model Indicator
  ,                                       ! Beam Solar Day Schedule Name
  ,                                       ! Diffuse Solar Day Schedule Name
  0.541,                                  ! ASHRAE Taub {dimensionless}
  1.8;                                    ! ASHRAE Taud {dimensionless}

