
OS:Version,
  {7a5e4b38-6826-458f-8598-403605ca7b59}, ! Handle
  0.9.3;                                  ! Version Identifier

OS:SizingPeriod:DesignDay,
  {020a17b0-175f-4089-bf7e-14c87dff171e}, ! Handle
  Santa Barbara Municipal Ap Ann Clg 2% Condns WB=>MDB, ! Name
  23.3,                                   ! Maximum Dry-Bulb Temperature {C}
  9.1,                                    ! Daily Dry-Bulb Temperature Range {deltaC}
  19,                                     ! Humidity Indicating Conditions at Maximum Dry-Bulb {BasedOnField A3}
  101289,                                 ! Barometric Pressure {Pa}
  4.2,                                    ! Wind Speed {m/s}
  250,                                    ! Wind Direction {deg}
  0,                                      ! Sky Clearness
  0,                                      ! Rain Indicator
  0,                                      ! Snow Indicator
  21,                                     ! Day of Month
  8,                                      ! Month
  SummerDesignDay,                        ! Day Type
  0,                                      ! Daylight Saving Time Indicator
  Wetbulb,                                ! Humidity Indicating Type
  ,                                       ! Humidity Indicating Day Schedule Name
  DefaultMultipliers,                     ! Dry-Bulb Temperature Range Modifier Type
  ,                                       ! Dry-Bulb Temperature Range Modifier Schedule Name
  ASHRAETau,                              ! Solar Model Indicator
  ,                                       ! Beam Solar Day Schedule Name
  ,                                       ! Diffuse Solar Day Schedule Name
  0.405,                                  ! ASHRAE Taub {dimensionless}
  2.29;                                   ! ASHRAE Taud {dimensionless}

OS:ComponentData,
  {53f79686-1cd6-4c8e-9b47-fec547354ac3}, ! Handle
  Component Data 1,                       ! Name
  {5bc26e88-ccd4-4d89-9e03-8e81f641c12e}, ! UUID
  {79f441ca-34b6-41f7-90d0-f52e9dddb2dc}, ! Version UUID
  1366306607,                             ! Creation Timestamp
  1366306607,                             ! Version Timestamp
  {020a17b0-175f-4089-bf7e-14c87dff171e}; ! Name of Object 1

