
OS:Version,
  {4eefb623-ee80-4046-855b-5ff660d6d567}, ! Handle
  0.9.3;                                  ! Version Identifier

OS:SizingPeriod:DesignDay,
  {cf656b49-d55f-4f22-80b2-00a052875640}, ! Handle
  Pendleton E Or Regional Ap Ann Htg 99.6% Condns DB, ! Name
  -13.9,                                  ! Maximum Dry-Bulb Temperature {C}
  0,                                      ! Daily Dry-Bulb Temperature Range {deltaC}
  -13.9,                                  ! Humidity Indicating Conditions at Maximum Dry-Bulb {BasedOnField A3}
  96012,                                  ! Barometric Pressure {Pa}
  2,                                      ! Wind Speed {m/s}
  140,                                    ! Wind Direction {deg}
  0,                                      ! Sky Clearness
  0,                                      ! Rain Indicator
  0,                                      ! Snow Indicator
  21,                                     ! Day of Month
  12,                                     ! Month
  WinterDesignDay,                        ! Day Type
  0,                                      ! Daylight Saving Time Indicator
  Wetbulb,                                ! Humidity Indicating Type
  ,                                       ! Humidity Indicating Day Schedule Name
  DefaultMultipliers,                     ! Dry-Bulb Temperature Range Modifier Type
  ,                                       ! Dry-Bulb Temperature Range Modifier Schedule Name
  ASHRAEClearSky;                         ! Solar Model Indicator

OS:ComponentData,
  {45b487cd-01aa-4e2c-a7b4-b7b300e3a4c5}, ! Handle
  Component Data 1,                       ! Name
  {dfb57b63-10a4-417d-834e-8e436beb114e}, ! UUID
  {14476c21-2003-45c9-a954-9e7bda3d2b71}, ! Version UUID
  1366310057,                             ! Creation Timestamp
  1366310057,                             ! Version Timestamp
  {cf656b49-d55f-4f22-80b2-00a052875640}; ! Name of Object 1

