
OS:Version,
  {0e97a13e-a734-4bc6-9343-86ba85b0b3e6}, ! Handle
  0.9.3;                                  ! Version Identifier

OS:SizingPeriod:DesignDay,
  {dc1504da-4666-4f85-ba4c-a57928f45bb2}, ! Handle
  Sheridan County Arpt Ann Clg .4% Condns DB=>MWB, ! Name
  35.3,                                   ! Maximum Dry-Bulb Temperature {C}
  17.2,                                   ! Daily Dry-Bulb Temperature Range {deltaC}
  17.7,                                   ! Humidity Indicating Conditions at Maximum Dry-Bulb {BasedOnField A3}
  87630,                                  ! Barometric Pressure {Pa}
  3.7,                                    ! Wind Speed {m/s}
  310,                                    ! Wind Direction {deg}
  0,                                      ! Sky Clearness
  0,                                      ! Rain Indicator
  0,                                      ! Snow Indicator
  21,                                     ! Day of Month
  7,                                      ! Month
  SummerDesignDay,                        ! Day Type
  0,                                      ! Daylight Saving Time Indicator
  Wetbulb,                                ! Humidity Indicating Type
  ,                                       ! Humidity Indicating Day Schedule Name
  DefaultMultipliers,                     ! Dry-Bulb Temperature Range Modifier Type
  ,                                       ! Dry-Bulb Temperature Range Modifier Schedule Name
  ASHRAETau,                              ! Solar Model Indicator
  ,                                       ! Beam Solar Day Schedule Name
  ,                                       ! Diffuse Solar Day Schedule Name
  0.407,                                  ! ASHRAE Taub {dimensionless}
  2.098;                                  ! ASHRAE Taud {dimensionless}

OS:ComponentData,
  {5c2e8091-4137-4aec-a894-0e220e324d64}, ! Handle
  Component Data 1,                       ! Name
  {c93f42f7-2ec5-46f3-9e55-c91d6e9163c7}, ! UUID
  {6443b6fd-f93d-4bbc-a44f-8c8f807523c9}, ! Version UUID
  1366311786,                             ! Creation Timestamp
  1366311786,                             ! Version Timestamp
  {dc1504da-4666-4f85-ba4c-a57928f45bb2}; ! Name of Object 1

