
OS:Version,
  {e1997495-514a-412c-8f42-b0fb60b8a8a6}, ! Handle
  0.9.3;                                  ! Version Identifier

OS:SizingPeriod:DesignDay,
  {3feae096-a83e-4ec0-97f2-30cf0d5eead1}, ! Handle
  Terre Haute Hulman Regional A Ann Clg .4% Condns WB=>MDB, ! Name
  31.6,                                   ! Maximum Dry-Bulb Temperature {C}
  10.9,                                   ! Daily Dry-Bulb Temperature Range {deltaC}
  26.4,                                   ! Humidity Indicating Conditions at Maximum Dry-Bulb {BasedOnField A3}
  99240,                                  ! Barometric Pressure {Pa}
  4.4,                                    ! Wind Speed {m/s}
  200,                                    ! Wind Direction {deg}
  0,                                      ! Sky Clearness
  0,                                      ! Rain Indicator
  0,                                      ! Snow Indicator
  21,                                     ! Day of Month
  7,                                      ! Month
  SummerDesignDay,                        ! Day Type
  0,                                      ! Daylight Saving Time Indicator
  Wetbulb,                                ! Humidity Indicating Type
  ,                                       ! Humidity Indicating Day Schedule Name
  DefaultMultipliers,                     ! Dry-Bulb Temperature Range Modifier Type
  ,                                       ! Dry-Bulb Temperature Range Modifier Schedule Name
  ASHRAETau,                              ! Solar Model Indicator
  ,                                       ! Beam Solar Day Schedule Name
  ,                                       ! Diffuse Solar Day Schedule Name
  0.482,                                  ! ASHRAE Taub {dimensionless}
  1.952;                                  ! ASHRAE Taud {dimensionless}

OS:ComponentData,
  {0400e0f1-ed87-4b3a-94f8-90196c153051}, ! Handle
  Component Data 1,                       ! Name
  {a9330685-713b-42c7-b434-801acc889def}, ! UUID
  {f470efa6-2460-4dc8-bafb-4bffb851aeff}, ! Version UUID
  1366307492,                             ! Creation Timestamp
  1366307492,                             ! Version Timestamp
  {3feae096-a83e-4ec0-97f2-30cf0d5eead1}; ! Name of Object 1

