
OS:Version,
  {e1cae256-d405-4f49-84a7-5b2280187b57}, ! Handle
  0.9.3;                                  ! Version Identifier

OS:SizingPeriod:DesignDay,
  {634cee43-cafb-4f0d-82cd-eb34ce3b67d8}, ! Handle
  Pueblo Memorial Ap Ann Htg 99% Condns DB, ! Name
  -14.8,                                  ! Maximum Dry-Bulb Temperature {C}
  0,                                      ! Daily Dry-Bulb Temperature Range {deltaC}
  -14.8,                                  ! Humidity Indicating Conditions at Maximum Dry-Bulb {BasedOnField A3}
  85306,                                  ! Barometric Pressure {Pa}
  1.9,                                    ! Wind Speed {m/s}
  250,                                    ! Wind Direction {deg}
  0,                                      ! Sky Clearness
  0,                                      ! Rain Indicator
  0,                                      ! Snow Indicator
  21,                                     ! Day of Month
  12,                                     ! Month
  WinterDesignDay,                        ! Day Type
  0,                                      ! Daylight Saving Time Indicator
  Wetbulb,                                ! Humidity Indicating Type
  ,                                       ! Humidity Indicating Day Schedule Name
  DefaultMultipliers,                     ! Dry-Bulb Temperature Range Modifier Type
  ,                                       ! Dry-Bulb Temperature Range Modifier Schedule Name
  ASHRAEClearSky;                         ! Solar Model Indicator

OS:ComponentData,
  {8d8926a4-8077-44c1-822b-4d1348a33694}, ! Handle
  Component Data 1,                       ! Name
  {16e9a165-9293-4ca4-9bbb-26ca0276ebc5}, ! UUID
  {9c1f19ac-36ff-4b3b-b5a9-6cbf364097b1}, ! Version UUID
  1366306730,                             ! Creation Timestamp
  1366306730,                             ! Version Timestamp
  {634cee43-cafb-4f0d-82cd-eb34ce3b67d8}; ! Name of Object 1

