
OS:Version,
  {0c878a9f-32a4-43a1-b6af-110714b94c69}, ! Handle
  0.9.3;                                  ! Version Identifier

OS:SizingPeriod:DesignDay,
  {bfb76da4-70a0-408e-94d9-300fc37ddd57}, ! Handle
  William R Fairchild Ann Htg 99.6% Condns DB, ! Name
  -4.3,                                   ! Maximum Dry-Bulb Temperature {C}
  0,                                      ! Daily Dry-Bulb Temperature Range {deltaC}
  -4.3,                                   ! Humidity Indicating Conditions at Maximum Dry-Bulb {BasedOnField A3}
  100237,                                 ! Barometric Pressure {Pa}
  1.2,                                    ! Wind Speed {m/s}
  110,                                    ! Wind Direction {deg}
  0,                                      ! Sky Clearness
  0,                                      ! Rain Indicator
  0,                                      ! Snow Indicator
  21,                                     ! Day of Month
  1,                                      ! Month
  WinterDesignDay,                        ! Day Type
  0,                                      ! Daylight Saving Time Indicator
  Wetbulb,                                ! Humidity Indicating Type
  ,                                       ! Humidity Indicating Day Schedule Name
  DefaultMultipliers,                     ! Dry-Bulb Temperature Range Modifier Type
  ,                                       ! Dry-Bulb Temperature Range Modifier Schedule Name
  ASHRAEClearSky;                         ! Solar Model Indicator

OS:ComponentData,
  {d30aa8bb-a33f-414a-aa59-b40717b61817}, ! Handle
  Component Data 1,                       ! Name
  {6fa59432-ba19-4b24-8bbf-4b4f29d24728}, ! UUID
  {af98a01a-be86-4ea8-8814-028f6156dc9e}, ! Version UUID
  1366311323,                             ! Creation Timestamp
  1366311323,                             ! Version Timestamp
  {bfb76da4-70a0-408e-94d9-300fc37ddd57}; ! Name of Object 1

