
OS:Version,
  {bd40061d-8bec-4dc4-bfbf-a7319ce49164}, ! Handle
  0.9.3;                                  ! Version Identifier

OS:SizingPeriod:DesignDay,
  {82124bd6-66a2-4979-a420-33e9937d343c}, ! Handle
  Pittsburgh International Ap Ann Clg .4% Condns DP=>MDB, ! Name
  26.6,                                   ! Maximum Dry-Bulb Temperature {C}
  10.3,                                   ! Daily Dry-Bulb Temperature Range {deltaC}
  22.3,                                   ! Humidity Indicating Conditions at Maximum Dry-Bulb {BasedOnField A3}
  97190,                                  ! Barometric Pressure {Pa}
  4.5,                                    ! Wind Speed {m/s}
  220,                                    ! Wind Direction {deg}
  0,                                      ! Sky Clearness
  0,                                      ! Rain Indicator
  0,                                      ! Snow Indicator
  21,                                     ! Day of Month
  7,                                      ! Month
  SummerDesignDay,                        ! Day Type
  0,                                      ! Daylight Saving Time Indicator
  Dewpoint,                               ! Humidity Indicating Type
  ,                                       ! Humidity Indicating Day Schedule Name
  DefaultMultipliers,                     ! Dry-Bulb Temperature Range Modifier Type
  ,                                       ! Dry-Bulb Temperature Range Modifier Schedule Name
  ASHRAETau,                              ! Solar Model Indicator
  ,                                       ! Beam Solar Day Schedule Name
  ,                                       ! Diffuse Solar Day Schedule Name
  0.479,                                  ! ASHRAE Taub {dimensionless}
  1.937;                                  ! ASHRAE Taud {dimensionless}

OS:ComponentData,
  {82a6e831-a93a-4b59-b840-d34f4e476f5e}, ! Handle
  Component Data 1,                       ! Name
  {1d430ebe-d5ce-49bd-a345-fa2a626fa137}, ! UUID
  {7d6b7a40-a3e3-4aff-85b5-eceb8a92a19b}, ! Version UUID
  1366310247,                             ! Creation Timestamp
  1366310247,                             ! Version Timestamp
  {82124bd6-66a2-4979-a420-33e9937d343c}; ! Name of Object 1

