
OS:Version,
  {3a57c67b-d703-4f8a-86ed-6ad594e3b050}, ! Handle
  0.9.3;                                  ! Version Identifier

OS:SizingPeriod:DesignDay,
  {457d388a-fdfb-49d1-9a62-a670276f1796}, ! Handle
  Otis Angb Ann Clg 2% Condns Enth=>MDB,  ! Name
  24.9,                                   ! Maximum Dry-Bulb Temperature {C}
  8.3,                                    ! Daily Dry-Bulb Temperature Range {deltaC}
  66500,                                  ! Humidity Indicating Conditions at Maximum Dry-Bulb {BasedOnField A3}
  100845,                                 ! Barometric Pressure {Pa}
  4.8,                                    ! Wind Speed {m/s}
  230,                                    ! Wind Direction {deg}
  0,                                      ! Sky Clearness
  0,                                      ! Rain Indicator
  0,                                      ! Snow Indicator
  21,                                     ! Day of Month
  7,                                      ! Month
  SummerDesignDay,                        ! Day Type
  0,                                      ! Daylight Saving Time Indicator
  Enthalpy,                               ! Humidity Indicating Type
  ,                                       ! Humidity Indicating Day Schedule Name
  DefaultMultipliers,                     ! Dry-Bulb Temperature Range Modifier Type
  ,                                       ! Dry-Bulb Temperature Range Modifier Schedule Name
  ASHRAETau,                              ! Solar Model Indicator
  ,                                       ! Beam Solar Day Schedule Name
  ,                                       ! Diffuse Solar Day Schedule Name
  0.514,                                  ! ASHRAE Taub {dimensionless}
  1.868;                                  ! ASHRAE Taud {dimensionless}

OS:ComponentData,
  {d47d7077-9201-4747-9e40-90e3593ab76c}, ! Handle
  Component Data 1,                       ! Name
  {3cd5ba01-ee99-4212-825a-90ccd1815afa}, ! UUID
  {6b382370-1f7a-4f55-8596-c0675f883c5e}, ! Version UUID
  1366307815,                             ! Creation Timestamp
  1366307815,                             ! Version Timestamp
  {457d388a-fdfb-49d1-9a62-a670276f1796}; ! Name of Object 1

