
OS:Version,
  {6bd9bc48-0b25-414d-bf54-f48d0accbd76}, ! Handle
  0.9.3;                                  ! Version Identifier

OS:SizingPeriod:DesignDay,
  {6ea38241-3871-4338-a797-9dbc88285b2c}, ! Handle
  Muscle Shoals Regional Ap Ann Clg 1% Condns Enth=>MDB, ! Name
  31.2,                                   ! Maximum Dry-Bulb Temperature {C}
  10.8,                                   ! Daily Dry-Bulb Temperature Range {deltaC}
  78600,                                  ! Humidity Indicating Conditions at Maximum Dry-Bulb {BasedOnField A3}
  99358,                                  ! Barometric Pressure {Pa}
  3,                                      ! Wind Speed {m/s}
  270,                                    ! Wind Direction {deg}
  0,                                      ! Sky Clearness
  0,                                      ! Rain Indicator
  0,                                      ! Snow Indicator
  21,                                     ! Day of Month
  7,                                      ! Month
  SummerDesignDay,                        ! Day Type
  0,                                      ! Daylight Saving Time Indicator
  Enthalpy,                               ! Humidity Indicating Type
  ,                                       ! Humidity Indicating Day Schedule Name
  DefaultMultipliers,                     ! Dry-Bulb Temperature Range Modifier Type
  ,                                       ! Dry-Bulb Temperature Range Modifier Schedule Name
  ASHRAETau,                              ! Solar Model Indicator
  ,                                       ! Beam Solar Day Schedule Name
  ,                                       ! Diffuse Solar Day Schedule Name
  0.54,                                   ! ASHRAE Taub {dimensionless}
  1.819;                                  ! ASHRAE Taud {dimensionless}

OS:ComponentData,
  {b06d8898-5831-4b6a-bd38-13f4b0e5ac86}, ! Handle
  Component Data 1,                       ! Name
  {1ab35f1c-a15f-4423-85d9-fbe141b99c9c}, ! UUID
  {cffedef8-841d-494f-9e41-2746dbe98a3b}, ! Version UUID
  1366305995,                             ! Creation Timestamp
  1366305995,                             ! Version Timestamp
  {6ea38241-3871-4338-a797-9dbc88285b2c}; ! Name of Object 1

