
OS:Version,
  {27c51ee1-e65b-455d-a486-97396d111461}, ! Handle
  0.9.3;                                  ! Version Identifier

OS:SizingPeriod:DesignDay,
  {bd0a5cdb-97f9-4ec5-a9f4-7f9ef4f48ffd}, ! Handle
  Nome Ann Clg .4% Condns WB=>MDB,        ! Name
  18.6,                                   ! Maximum Dry-Bulb Temperature {C}
  5.9,                                    ! Daily Dry-Bulb Temperature Range {deltaC}
  14.9,                                   ! Humidity Indicating Conditions at Maximum Dry-Bulb {BasedOnField A3}
  101241,                                 ! Barometric Pressure {Pa}
  4.8,                                    ! Wind Speed {m/s}
  260,                                    ! Wind Direction {deg}
  0,                                      ! Sky Clearness
  0,                                      ! Rain Indicator
  0,                                      ! Snow Indicator
  21,                                     ! Day of Month
  7,                                      ! Month
  SummerDesignDay,                        ! Day Type
  0,                                      ! Daylight Saving Time Indicator
  Wetbulb,                                ! Humidity Indicating Type
  ,                                       ! Humidity Indicating Day Schedule Name
  DefaultMultipliers,                     ! Dry-Bulb Temperature Range Modifier Type
  ,                                       ! Dry-Bulb Temperature Range Modifier Schedule Name
  ASHRAETau,                              ! Solar Model Indicator
  ,                                       ! Beam Solar Day Schedule Name
  ,                                       ! Diffuse Solar Day Schedule Name
  0.408,                                  ! ASHRAE Taub {dimensionless}
  2.08;                                   ! ASHRAE Taud {dimensionless}

OS:ComponentData,
  {ee0e6759-df9e-48ba-be99-8851bfd6c43a}, ! Handle
  Component Data 1,                       ! Name
  {b8b419eb-3825-4511-bc5e-34c463c7a76c}, ! UUID
  {c6ab579b-7790-483e-9fdb-cb34239fecd8}, ! Version UUID
  1366305454,                             ! Creation Timestamp
  1366305454,                             ! Version Timestamp
  {bd0a5cdb-97f9-4ec5-a9f4-7f9ef4f48ffd}; ! Name of Object 1

