
OS:Version,
  {abf54517-3e36-4a24-80ef-61f8b1cdbfc3}, ! Handle
  0.9.3;                                  ! Version Identifier

OS:SizingPeriod:DesignDay,
  {635adb01-4f2f-4a97-9d32-8a940118ab2d}, ! Handle
  Sidney Richland Ann Clg .4% Condns DP=>MDB, ! Name
  26.5,                                   ! Maximum Dry-Bulb Temperature {C}
  14,                                     ! Daily Dry-Bulb Temperature Range {deltaC}
  19.1,                                   ! Humidity Indicating Conditions at Maximum Dry-Bulb {BasedOnField A3}
  94265,                                  ! Barometric Pressure {Pa}
  4.5,                                    ! Wind Speed {m/s}
  160,                                    ! Wind Direction {deg}
  0,                                      ! Sky Clearness
  0,                                      ! Rain Indicator
  0,                                      ! Snow Indicator
  21,                                     ! Day of Month
  7,                                      ! Month
  SummerDesignDay,                        ! Day Type
  0,                                      ! Daylight Saving Time Indicator
  Dewpoint,                               ! Humidity Indicating Type
  ,                                       ! Humidity Indicating Day Schedule Name
  DefaultMultipliers,                     ! Dry-Bulb Temperature Range Modifier Type
  ,                                       ! Dry-Bulb Temperature Range Modifier Schedule Name
  ASHRAETau,                              ! Solar Model Indicator
  ,                                       ! Beam Solar Day Schedule Name
  ,                                       ! Diffuse Solar Day Schedule Name
  0.396,                                  ! ASHRAE Taub {dimensionless}
  2.189;                                  ! ASHRAE Taud {dimensionless}

OS:ComponentData,
  {749a7177-00d0-48b9-9412-261436938e54}, ! Handle
  Component Data 1,                       ! Name
  {eb97302d-3199-4faa-b2ae-f6cee9ed91d7}, ! UUID
  {997d1810-c3f4-4f67-9396-1061437a4a0b}, ! Version UUID
  1366308854,                             ! Creation Timestamp
  1366308854,                             ! Version Timestamp
  {635adb01-4f2f-4a97-9d32-8a940118ab2d}; ! Name of Object 1

