
OS:Version,
  {a5337808-4733-4885-bdc3-fca23f0464d0}, ! Handle
  0.9.3;                                  ! Version Identifier

OS:SizingPeriod:DesignDay,
  {a331d6bc-ab70-4b2c-afbd-8c408a647336}, ! Handle
  Morgantown Hart Field Ann Htg 99.6% Condns DB, ! Name
  -14.5,                                  ! Maximum Dry-Bulb Temperature {C}
  0,                                      ! Daily Dry-Bulb Temperature Range {deltaC}
  -14.5,                                  ! Humidity Indicating Conditions at Maximum Dry-Bulb {BasedOnField A3}
  96866,                                  ! Barometric Pressure {Pa}
  2.7,                                    ! Wind Speed {m/s}
  240,                                    ! Wind Direction {deg}
  0,                                      ! Sky Clearness
  0,                                      ! Rain Indicator
  0,                                      ! Snow Indicator
  21,                                     ! Day of Month
  1,                                      ! Month
  WinterDesignDay,                        ! Day Type
  0,                                      ! Daylight Saving Time Indicator
  Wetbulb,                                ! Humidity Indicating Type
  ,                                       ! Humidity Indicating Day Schedule Name
  DefaultMultipliers,                     ! Dry-Bulb Temperature Range Modifier Type
  ,                                       ! Dry-Bulb Temperature Range Modifier Schedule Name
  ASHRAEClearSky;                         ! Solar Model Indicator

OS:ComponentData,
  {0fff1375-a294-4728-a7a4-06cb788a3f74}, ! Handle
  Component Data 1,                       ! Name
  {7ec90f88-d74a-4f9c-ad02-2de92698e87f}, ! UUID
  {295f8c94-f819-417a-85b6-00d0a517e3ea}, ! Version UUID
  1366311669,                             ! Creation Timestamp
  1366311669,                             ! Version Timestamp
  {a331d6bc-ab70-4b2c-afbd-8c408a647336}; ! Name of Object 1

