
OS:Version,
  {f65a1caa-109e-4be1-b5b0-02d6398b87b7}, ! Handle
  0.9.3;                                  ! Version Identifier

OS:SizingPeriod:DesignDay,
  {c40f9dcb-c418-437f-8aac-33de72cad820}, ! Handle
  OKLAHOMA_CITY Ann Htg 99% Condns DB,    ! Name
  -8.1,                                   ! Maximum Dry-Bulb Temperature {C}
  0,                                      ! Daily Dry-Bulb Temperature Range {deltaC}
  -8.1,                                   ! Humidity Indicating Conditions at Maximum Dry-Bulb {BasedOnField A3}
  96646,                                  ! Barometric Pressure {Pa}
  6.1,                                    ! Wind Speed {m/s}
  0,                                      ! Wind Direction {deg}
  0,                                      ! Sky Clearness
  0,                                      ! Rain Indicator
  0,                                      ! Snow Indicator
  21,                                     ! Day of Month
  1,                                      ! Month
  WinterDesignDay,                        ! Day Type
  0,                                      ! Daylight Saving Time Indicator
  Wetbulb,                                ! Humidity Indicating Type
  ,                                       ! Humidity Indicating Day Schedule Name
  DefaultMultipliers,                     ! Dry-Bulb Temperature Range Modifier Type
  ,                                       ! Dry-Bulb Temperature Range Modifier Schedule Name
  ASHRAEClearSky;                         ! Solar Model Indicator

OS:ComponentData,
  {72faa469-c13d-4f3d-a6a2-5c1e8c1ba2d3}, ! Handle
  Component Data 1,                       ! Name
  {019f364a-516e-4566-bcda-7ec4102dd7c0}, ! UUID
  {87981e9c-8ea0-4f18-9437-e843cb2fb2e3}, ! Version UUID
  1366309930,                             ! Creation Timestamp
  1366309930,                             ! Version Timestamp
  {c40f9dcb-c418-437f-8aac-33de72cad820}; ! Name of Object 1

