
OS:Version,
  {ee35258d-cab8-4e6a-8c79-1ed5c266df56}, ! Handle
  0.9.3;                                  ! Version Identifier

OS:SizingPeriod:DesignDay,
  {be9dff30-9721-49ad-a48b-7a516548b633}, ! Handle
  Portland Ann Clg 1% Condns DB=>MWB,     ! Name
  30.6,                                   ! Maximum Dry-Bulb Temperature {C}
  12.2,                                   ! Daily Dry-Bulb Temperature Range {deltaC}
  19.2,                                   ! Humidity Indicating Conditions at Maximum Dry-Bulb {BasedOnField A3}
  101181,                                 ! Barometric Pressure {Pa}
  4.7,                                    ! Wind Speed {m/s}
  310,                                    ! Wind Direction {deg}
  0,                                      ! Sky Clearness
  0,                                      ! Rain Indicator
  0,                                      ! Snow Indicator
  21,                                     ! Day of Month
  8,                                      ! Month
  SummerDesignDay,                        ! Day Type
  0,                                      ! Daylight Saving Time Indicator
  Wetbulb,                                ! Humidity Indicating Type
  ,                                       ! Humidity Indicating Day Schedule Name
  DefaultMultipliers,                     ! Dry-Bulb Temperature Range Modifier Type
  ,                                       ! Dry-Bulb Temperature Range Modifier Schedule Name
  ASHRAETau,                              ! Solar Model Indicator
  ,                                       ! Beam Solar Day Schedule Name
  ,                                       ! Diffuse Solar Day Schedule Name
  0.358,                                  ! ASHRAE Taub {dimensionless}
  2.549;                                  ! ASHRAE Taud {dimensionless}

OS:ComponentData,
  {2e374ef3-8799-4dae-a77f-ba663638e94c}, ! Handle
  Component Data 1,                       ! Name
  {01f587c9-c9eb-44e1-b0f8-3796ad88bec7}, ! UUID
  {5de6aa8a-ee09-40dc-ac12-a5db3e20d3af}, ! Version UUID
  1366310078,                             ! Creation Timestamp
  1366310078,                             ! Version Timestamp
  {be9dff30-9721-49ad-a48b-7a516548b633}; ! Name of Object 1

