
OS:Version,
  {375be6a7-2018-4fb7-a947-60261f394f5b}, ! Handle
  0.9.3;                                  ! Version Identifier

OS:SizingPeriod:DesignDay,
  {88bc6a4a-0d84-4163-8324-6c6a82e358e4}, ! Handle
  Tacoma Narrows Ann Htg Wind 99% Condns WS=>MCDB, ! Name
  7.6,                                    ! Maximum Dry-Bulb Temperature {C}
  0,                                      ! Daily Dry-Bulb Temperature Range {deltaC}
  7.6,                                    ! Humidity Indicating Conditions at Maximum Dry-Bulb {BasedOnField A3}
  100237,                                 ! Barometric Pressure {Pa}
  10.1,                                   ! Wind Speed {m/s}
  20,                                     ! Wind Direction {deg}
  0,                                      ! Sky Clearness
  0,                                      ! Rain Indicator
  0,                                      ! Snow Indicator
  21,                                     ! Day of Month
  12,                                     ! Month
  WinterDesignDay,                        ! Day Type
  0,                                      ! Daylight Saving Time Indicator
  Wetbulb,                                ! Humidity Indicating Type
  ,                                       ! Humidity Indicating Day Schedule Name
  DefaultMultipliers,                     ! Dry-Bulb Temperature Range Modifier Type
  ,                                       ! Dry-Bulb Temperature Range Modifier Schedule Name
  ASHRAEClearSky;                         ! Solar Model Indicator

OS:ComponentData,
  {2187857b-627a-49e1-a88c-1816ebc01b39}, ! Handle
  Component Data 1,                       ! Name
  {13c2928b-ef05-48b8-b5f1-d4f8ead38d76}, ! UUID
  {ada3cf69-a19a-4384-bed0-c53a1a163eda}, ! Version UUID
  1366311410,                             ! Creation Timestamp
  1366311410,                             ! Version Timestamp
  {88bc6a4a-0d84-4163-8324-6c6a82e358e4}; ! Name of Object 1

