
OS:Version,
  {26cab3b0-bbf0-4b88-ad1f-6aaf70451046}, ! Handle
  0.9.3;                                  ! Version Identifier

OS:SizingPeriod:DesignDay,
  {dd2863f0-0e48-402f-bc94-d86807f39cf1}, ! Handle
  San Antonio/Randolph A Ann Clg 1% Condns DP=>MDB, ! Name
  26.6,                                   ! Maximum Dry-Bulb Temperature {C}
  11.2,                                   ! Daily Dry-Bulb Temperature Range {deltaC}
  24,                                     ! Humidity Indicating Conditions at Maximum Dry-Bulb {BasedOnField A3}
  98569,                                  ! Barometric Pressure {Pa}
  4.3,                                    ! Wind Speed {m/s}
  160,                                    ! Wind Direction {deg}
  0,                                      ! Sky Clearness
  0,                                      ! Rain Indicator
  0,                                      ! Snow Indicator
  21,                                     ! Day of Month
  8,                                      ! Month
  SummerDesignDay,                        ! Day Type
  0,                                      ! Daylight Saving Time Indicator
  Dewpoint,                               ! Humidity Indicating Type
  ,                                       ! Humidity Indicating Day Schedule Name
  DefaultMultipliers,                     ! Dry-Bulb Temperature Range Modifier Type
  ,                                       ! Dry-Bulb Temperature Range Modifier Schedule Name
  ASHRAETau,                              ! Solar Model Indicator
  ,                                       ! Beam Solar Day Schedule Name
  ,                                       ! Diffuse Solar Day Schedule Name
  0.449,                                  ! ASHRAE Taub {dimensionless}
  2.144;                                  ! ASHRAE Taud {dimensionless}

