
OS:Version,
  {a2359a19-34bd-4795-8574-928023ae2a87}, ! Handle
  0.9.3;                                  ! Version Identifier

OS:SizingPeriod:DesignDay,
  {767eb46b-9f4d-41e2-97a0-1a0792500706}, ! Handle
  Pendleton E Or Regional Ap Ann Clg 1% Condns DP=>MDB, ! Name
  21.8,                                   ! Maximum Dry-Bulb Temperature {C}
  15.8,                                   ! Daily Dry-Bulb Temperature Range {deltaC}
  13.3,                                   ! Humidity Indicating Conditions at Maximum Dry-Bulb {BasedOnField A3}
  96012,                                  ! Barometric Pressure {Pa}
  4.1,                                    ! Wind Speed {m/s}
  300,                                    ! Wind Direction {deg}
  0,                                      ! Sky Clearness
  0,                                      ! Rain Indicator
  0,                                      ! Snow Indicator
  21,                                     ! Day of Month
  7,                                      ! Month
  SummerDesignDay,                        ! Day Type
  0,                                      ! Daylight Saving Time Indicator
  Dewpoint,                               ! Humidity Indicating Type
  ,                                       ! Humidity Indicating Day Schedule Name
  DefaultMultipliers,                     ! Dry-Bulb Temperature Range Modifier Type
  ,                                       ! Dry-Bulb Temperature Range Modifier Schedule Name
  ASHRAETau,                              ! Solar Model Indicator
  ,                                       ! Beam Solar Day Schedule Name
  ,                                       ! Diffuse Solar Day Schedule Name
  0.384,                                  ! ASHRAE Taub {dimensionless}
  2.273;                                  ! ASHRAE Taud {dimensionless}

OS:ComponentData,
  {c4bc2bd7-514b-4a78-88dc-e05c14f8a98b}, ! Handle
  Component Data 1,                       ! Name
  {ab0924e9-7923-4d78-a64c-06ba52d84549}, ! UUID
  {7e079251-42a9-48b2-8f05-b93e8e4ae799}, ! Version UUID
  1366310059,                             ! Creation Timestamp
  1366310059,                             ! Version Timestamp
  {767eb46b-9f4d-41e2-97a0-1a0792500706}; ! Name of Object 1

