
OS:Version,
  {ea72c4fc-79b9-4744-b81c-5503f66f1a19}, ! Handle
  0.9.3;                                  ! Version Identifier

OS:SizingPeriod:DesignDay,
  {80bfb71b-ffe5-47e5-b593-ba5f8a56de77}, ! Handle
  Wausau Municipal Arpt Ann Htg Wind 99.6% Condns WS=>MCDB, ! Name
  -9.4,                                   ! Maximum Dry-Bulb Temperature {C}
  0,                                      ! Daily Dry-Bulb Temperature Range {deltaC}
  -9.4,                                   ! Humidity Indicating Conditions at Maximum Dry-Bulb {BasedOnField A3}
  97005,                                  ! Barometric Pressure {Pa}
  9.3,                                    ! Wind Speed {m/s}
  300,                                    ! Wind Direction {deg}
  0,                                      ! Sky Clearness
  0,                                      ! Rain Indicator
  0,                                      ! Snow Indicator
  21,                                     ! Day of Month
  1,                                      ! Month
  WinterDesignDay,                        ! Day Type
  0,                                      ! Daylight Saving Time Indicator
  Wetbulb,                                ! Humidity Indicating Type
  ,                                       ! Humidity Indicating Day Schedule Name
  DefaultMultipliers,                     ! Dry-Bulb Temperature Range Modifier Type
  ,                                       ! Dry-Bulb Temperature Range Modifier Schedule Name
  ASHRAEClearSky;                         ! Solar Model Indicator

OS:ComponentData,
  {5af5e4e4-4652-4e94-b81a-a63299d0a7b7}, ! Handle
  Component Data 1,                       ! Name
  {6bed532c-dd64-44be-8879-ddb9cb52ac36}, ! UUID
  {fb3b1872-1f89-4c14-921a-8a8748f59b0c}, ! Version UUID
  1366311596,                             ! Creation Timestamp
  1366311596,                             ! Version Timestamp
  {80bfb71b-ffe5-47e5-b593-ba5f8a56de77}; ! Name of Object 1

