
OS:Version,
  {6a35d31b-417a-4354-be32-014b8a8507cd}, ! Handle
  0.9.3;                                  ! Version Identifier

OS:SizingPeriod:DesignDay,
  {c9f7c092-317f-4049-b8fb-b10cb3812f46}, ! Handle
  Sexton Summit Ann Clg 1% Condns DB=>MWB, ! Name
  27.1,                                   ! Maximum Dry-Bulb Temperature {C}
  11.2,                                   ! Daily Dry-Bulb Temperature Range {deltaC}
  15.6,                                   ! Humidity Indicating Conditions at Maximum Dry-Bulb {BasedOnField A3}
  88058,                                  ! Barometric Pressure {Pa}
  2.6,                                    ! Wind Speed {m/s}
  340,                                    ! Wind Direction {deg}
  0,                                      ! Sky Clearness
  0,                                      ! Rain Indicator
  0,                                      ! Snow Indicator
  21,                                     ! Day of Month
  8,                                      ! Month
  SummerDesignDay,                        ! Day Type
  0,                                      ! Daylight Saving Time Indicator
  Wetbulb,                                ! Humidity Indicating Type
  ,                                       ! Humidity Indicating Day Schedule Name
  DefaultMultipliers,                     ! Dry-Bulb Temperature Range Modifier Type
  ,                                       ! Dry-Bulb Temperature Range Modifier Schedule Name
  ASHRAETau,                              ! Solar Model Indicator
  ,                                       ! Beam Solar Day Schedule Name
  ,                                       ! Diffuse Solar Day Schedule Name
  0.311,                                  ! ASHRAE Taub {dimensionless}
  2.729;                                  ! ASHRAE Taud {dimensionless}

OS:ComponentData,
  {88d2493d-b8a0-483d-8ade-94b3b5715abe}, ! Handle
  Component Data 1,                       ! Name
  {ea3765b2-5eab-4e1a-9fba-992ba24d082f}, ! UUID
  {859beedc-8460-4780-9edc-d87175306108}, ! Version UUID
  1366310122,                             ! Creation Timestamp
  1366310122,                             ! Version Timestamp
  {c9f7c092-317f-4049-b8fb-b10cb3812f46}; ! Name of Object 1

