
OS:Version,
  {6eceff3c-11c1-4537-bdf0-a26d9758f7e6}, ! Handle
  0.9.3;                                  ! Version Identifier

OS:SizingPeriod:DesignDay,
  {659dfb03-0e0e-44ab-bfcd-3d137f30a78b}, ! Handle
  St Paul Downtown Ap Ann Clg 1% Condns WB=>MDB, ! Name
  28.8,                                   ! Maximum Dry-Bulb Temperature {C}
  10.3,                                   ! Daily Dry-Bulb Temperature Range {deltaC}
  24,                                     ! Humidity Indicating Conditions at Maximum Dry-Bulb {BasedOnField A3}
  98710,                                  ! Barometric Pressure {Pa}
  5.1,                                    ! Wind Speed {m/s}
  180,                                    ! Wind Direction {deg}
  0,                                      ! Sky Clearness
  0,                                      ! Rain Indicator
  0,                                      ! Snow Indicator
  21,                                     ! Day of Month
  7,                                      ! Month
  SummerDesignDay,                        ! Day Type
  0,                                      ! Daylight Saving Time Indicator
  Wetbulb,                                ! Humidity Indicating Type
  ,                                       ! Humidity Indicating Day Schedule Name
  DefaultMultipliers,                     ! Dry-Bulb Temperature Range Modifier Type
  ,                                       ! Dry-Bulb Temperature Range Modifier Schedule Name
  ASHRAETau,                              ! Solar Model Indicator
  ,                                       ! Beam Solar Day Schedule Name
  ,                                       ! Diffuse Solar Day Schedule Name
  0.417,                                  ! ASHRAE Taub {dimensionless}
  2.181;                                  ! ASHRAE Taud {dimensionless}

OS:ComponentData,
  {f7b5aab2-56ac-436e-827c-6aa5db85b5cb}, ! Handle
  Component Data 1,                       ! Name
  {d228f991-360a-49f1-9006-4a64020c1b8e}, ! UUID
  {0f02bf5a-2288-4530-9d10-29effb29d304}, ! Version UUID
  1366308435,                             ! Creation Timestamp
  1366308435,                             ! Version Timestamp
  {659dfb03-0e0e-44ab-bfcd-3d137f30a78b}; ! Name of Object 1

