
OS:Version,
  {b69db596-9a05-48c0-b433-185d8825c283}, ! Handle
  0.9.3;                                  ! Version Identifier

OS:SizingPeriod:DesignDay,
  {33e6755c-bd82-4767-b4d1-29413652df6f}, ! Handle
  Mcguire Afb Ann Clg 1% Condns Enth=>MDB, ! Name
  29.9,                                   ! Maximum Dry-Bulb Temperature {C}
  10.6,                                   ! Daily Dry-Bulb Temperature Range {deltaC}
  76500,                                  ! Humidity Indicating Conditions at Maximum Dry-Bulb {BasedOnField A3}
  100786,                                 ! Barometric Pressure {Pa}
  4,                                      ! Wind Speed {m/s}
  240,                                    ! Wind Direction {deg}
  0,                                      ! Sky Clearness
  0,                                      ! Rain Indicator
  0,                                      ! Snow Indicator
  21,                                     ! Day of Month
  7,                                      ! Month
  SummerDesignDay,                        ! Day Type
  0,                                      ! Daylight Saving Time Indicator
  Enthalpy,                               ! Humidity Indicating Type
  ,                                       ! Humidity Indicating Day Schedule Name
  DefaultMultipliers,                     ! Dry-Bulb Temperature Range Modifier Type
  ,                                       ! Dry-Bulb Temperature Range Modifier Schedule Name
  ASHRAETau,                              ! Solar Model Indicator
  ,                                       ! Beam Solar Day Schedule Name
  ,                                       ! Diffuse Solar Day Schedule Name
  0.539,                                  ! ASHRAE Taub {dimensionless}
  1.807;                                  ! ASHRAE Taud {dimensionless}

OS:ComponentData,
  {f97c415c-1a67-4f84-a009-804dce417b3a}, ! Handle
  Component Data 1,                       ! Name
  {c3497a6a-c33a-4097-8a3a-5dbdc3dd83cd}, ! UUID
  {6bf39350-9c21-4558-aae9-6e772adb1ee8}, ! Version UUID
  1366309314,                             ! Creation Timestamp
  1366309314,                             ! Version Timestamp
  {33e6755c-bd82-4767-b4d1-29413652df6f}; ! Name of Object 1

