
OS:Version,
  {0744e77d-3b46-4d12-a3d1-3de1c23dbefc}, ! Handle
  0.9.3;                                  ! Version Identifier

OS:SizingPeriod:DesignDay,
  {e958d5ff-5463-43a6-9fed-26aa7f0b80cc}, ! Handle
  William R Fairchild Ann Clg 1% Condns DB=>MWB, ! Name
  23.7,                                   ! Maximum Dry-Bulb Temperature {C}
  9.1,                                    ! Daily Dry-Bulb Temperature Range {deltaC}
  16,                                     ! Humidity Indicating Conditions at Maximum Dry-Bulb {BasedOnField A3}
  100237,                                 ! Barometric Pressure {Pa}
  2.1,                                    ! Wind Speed {m/s}
  90,                                     ! Wind Direction {deg}
  0,                                      ! Sky Clearness
  0,                                      ! Rain Indicator
  0,                                      ! Snow Indicator
  21,                                     ! Day of Month
  8,                                      ! Month
  SummerDesignDay,                        ! Day Type
  0,                                      ! Daylight Saving Time Indicator
  Wetbulb,                                ! Humidity Indicating Type
  ,                                       ! Humidity Indicating Day Schedule Name
  DefaultMultipliers,                     ! Dry-Bulb Temperature Range Modifier Type
  ,                                       ! Dry-Bulb Temperature Range Modifier Schedule Name
  ASHRAETau,                              ! Solar Model Indicator
  ,                                       ! Beam Solar Day Schedule Name
  ,                                       ! Diffuse Solar Day Schedule Name
  0.364,                                  ! ASHRAE Taub {dimensionless}
  2.489;                                  ! ASHRAE Taud {dimensionless}

OS:ComponentData,
  {6b0e6a93-bd47-4cac-8c4a-1f52ce8ef675}, ! Handle
  Component Data 1,                       ! Name
  {1f168f40-6082-4a60-b759-7014b05ae0f0}, ! UUID
  {28659bed-b983-405c-b9e1-846e50e66c11}, ! Version UUID
  1366311325,                             ! Creation Timestamp
  1366311325,                             ! Version Timestamp
  {e958d5ff-5463-43a6-9fed-26aa7f0b80cc}; ! Name of Object 1

