
OS:Version,
  {0ccd258c-ea70-4588-9c57-e0da9d3c1763}, ! Handle
  0.9.3;                                  ! Version Identifier

OS:SizingPeriod:DesignDay,
  {baddb07f-9b1d-4202-a020-a68714936a06}, ! Handle
  Pullman Moscow Rgnl Ann Clg 1% Condns DB=>MWB, ! Name
  32,                                     ! Maximum Dry-Bulb Temperature {C}
  16.9,                                   ! Daily Dry-Bulb Temperature Range {deltaC}
  17.9,                                   ! Humidity Indicating Conditions at Maximum Dry-Bulb {BasedOnField A3}
  92321,                                  ! Barometric Pressure {Pa}
  2.2,                                    ! Wind Speed {m/s}
  260,                                    ! Wind Direction {deg}
  0,                                      ! Sky Clearness
  0,                                      ! Rain Indicator
  0,                                      ! Snow Indicator
  21,                                     ! Day of Month
  7,                                      ! Month
  SummerDesignDay,                        ! Day Type
  0,                                      ! Daylight Saving Time Indicator
  Wetbulb,                                ! Humidity Indicating Type
  ,                                       ! Humidity Indicating Day Schedule Name
  DefaultMultipliers,                     ! Dry-Bulb Temperature Range Modifier Type
  ,                                       ! Dry-Bulb Temperature Range Modifier Schedule Name
  ASHRAETau,                              ! Solar Model Indicator
  ,                                       ! Beam Solar Day Schedule Name
  ,                                       ! Diffuse Solar Day Schedule Name
  0.365,                                  ! ASHRAE Taub {dimensionless}
  2.328;                                  ! ASHRAE Taud {dimensionless}

