
OS:Version,
  {2276f351-741a-43cb-a333-0d97ff374b33}, ! Handle
  0.9.3;                                  ! Version Identifier

OS:SizingPeriod:DesignDay,
  {5aa82171-1b94-499d-9df3-066e5af382bd}, ! Handle
  Staunton Shenandoah Ann Clg .4% Condns DB=>MWB, ! Name
  34,                                     ! Maximum Dry-Bulb Temperature {C}
  11.8,                                   ! Daily Dry-Bulb Temperature Range {deltaC}
  23.4,                                   ! Humidity Indicating Conditions at Maximum Dry-Bulb {BasedOnField A3}
  97005,                                  ! Barometric Pressure {Pa}
  3.2,                                    ! Wind Speed {m/s}
  220,                                    ! Wind Direction {deg}
  0,                                      ! Sky Clearness
  0,                                      ! Rain Indicator
  0,                                      ! Snow Indicator
  21,                                     ! Day of Month
  7,                                      ! Month
  SummerDesignDay,                        ! Day Type
  0,                                      ! Daylight Saving Time Indicator
  Wetbulb,                                ! Humidity Indicating Type
  ,                                       ! Humidity Indicating Day Schedule Name
  DefaultMultipliers,                     ! Dry-Bulb Temperature Range Modifier Type
  ,                                       ! Dry-Bulb Temperature Range Modifier Schedule Name
  ASHRAETau,                              ! Solar Model Indicator
  ,                                       ! Beam Solar Day Schedule Name
  ,                                       ! Diffuse Solar Day Schedule Name
  0.524,                                  ! ASHRAE Taub {dimensionless}
  1.829;                                  ! ASHRAE Taud {dimensionless}

OS:ComponentData,
  {7a3e1ae3-c7b6-4cb2-a7b0-9e54d5383cf7}, ! Handle
  Component Data 1,                       ! Name
  {cab91c90-ea85-4dd9-ae53-18bf3623232b}, ! UUID
  {2d6e4389-ea14-4871-8ae9-28d587fbdcc4}, ! Version UUID
  1366311196,                             ! Creation Timestamp
  1366311196,                             ! Version Timestamp
  {5aa82171-1b94-499d-9df3-066e5af382bd}; ! Name of Object 1

