
OS:Version,
  {053e7703-86a7-4f2e-b8b6-b5c997d2b118}, ! Handle
  0.9.3;                                  ! Version Identifier

OS:SizingPeriod:DesignDay,
  {181e580c-27a5-4176-8324-773433e9a7a2}, ! Handle
  Winslow Municipal Ap Ann Hum_n 99.6% Condns DP=>MCDB, ! Name
  -4.6,                                   ! Maximum Dry-Bulb Temperature {C}
  0,                                      ! Daily Dry-Bulb Temperature Range {deltaC}
  -21.3,                                  ! Humidity Indicating Conditions at Maximum Dry-Bulb {BasedOnField A3}
  84660,                                  ! Barometric Pressure {Pa}
  1.6,                                    ! Wind Speed {m/s}
  130,                                    ! Wind Direction {deg}
  0,                                      ! Sky Clearness
  0,                                      ! Rain Indicator
  0,                                      ! Snow Indicator
  21,                                     ! Day of Month
  12,                                     ! Month
  WinterDesignDay,                        ! Day Type
  0,                                      ! Daylight Saving Time Indicator
  Dewpoint,                               ! Humidity Indicating Type
  ,                                       ! Humidity Indicating Day Schedule Name
  DefaultMultipliers,                     ! Dry-Bulb Temperature Range Modifier Type
  ,                                       ! Dry-Bulb Temperature Range Modifier Schedule Name
  ASHRAEClearSky;                         ! Solar Model Indicator

OS:ComponentData,
  {f3b956af-7faa-4ab0-be31-6c513cc555ac}, ! Handle
  Component Data 1,                       ! Name
  {7915cb7e-9a1d-4cf2-ba2c-f5f3b1a88f27}, ! UUID
  {526ffc5e-115e-452e-9ddb-2e849e6ac1c5}, ! Version UUID
  1366306330,                             ! Creation Timestamp
  1366306330,                             ! Version Timestamp
  {181e580c-27a5-4176-8324-773433e9a7a2}; ! Name of Object 1

