
OS:Version,
  {2d24fe8e-2d37-4229-8a62-5d4a34d452f7}, ! Handle
  0.9.3;                                  ! Version Identifier

OS:SizingPeriod:DesignDay,
  {698cf9fc-1186-4a72-8b07-45d8063b88d2}, ! Handle
  Mcgrath Arpt Ann Clg 2% Condns WB=>MDB, ! Name
  20.3,                                   ! Maximum Dry-Bulb Temperature {C}
  9.7,                                    ! Daily Dry-Bulb Temperature Range {deltaC}
  15.1,                                   ! Humidity Indicating Conditions at Maximum Dry-Bulb {BasedOnField A3}
  100070,                                 ! Barometric Pressure {Pa}
  3.2,                                    ! Wind Speed {m/s}
  0,                                      ! Wind Direction {deg}
  0,                                      ! Sky Clearness
  0,                                      ! Rain Indicator
  0,                                      ! Snow Indicator
  21,                                     ! Day of Month
  7,                                      ! Month
  SummerDesignDay,                        ! Day Type
  0,                                      ! Daylight Saving Time Indicator
  Wetbulb,                                ! Humidity Indicating Type
  ,                                       ! Humidity Indicating Day Schedule Name
  DefaultMultipliers,                     ! Dry-Bulb Temperature Range Modifier Type
  ,                                       ! Dry-Bulb Temperature Range Modifier Schedule Name
  ASHRAETau,                              ! Solar Model Indicator
  ,                                       ! Beam Solar Day Schedule Name
  ,                                       ! Diffuse Solar Day Schedule Name
  0.388,                                  ! ASHRAE Taub {dimensionless}
  2.208;                                  ! ASHRAE Taud {dimensionless}

OS:ComponentData,
  {fbfc4f81-6de5-4022-b38f-20f085511ecb}, ! Handle
  Component Data 1,                       ! Name
  {459baae6-83d0-4e17-aedd-e79dde0d991c}, ! UUID
  {e5bf0128-2370-41af-9f28-39fe6efe31b3}, ! Version UUID
  1366305418,                             ! Creation Timestamp
  1366305418,                             ! Version Timestamp
  {698cf9fc-1186-4a72-8b07-45d8063b88d2}; ! Name of Object 1

