
OS:Version,
  {7068480a-702c-443a-8070-c1be28400085}, ! Handle
  0.9.3;                                  ! Version Identifier

OS:SizingPeriod:DesignDay,
  {5bbeb339-1f1b-413c-bfce-8cea059822f2}, ! Handle
  Ponca City Municipal Ap  Sgp Ann Clg 1% Condns DP=>MDB, ! Name
  29.2,                                   ! Maximum Dry-Bulb Temperature {C}
  11.4,                                   ! Daily Dry-Bulb Temperature Range {deltaC}
  23.4,                                   ! Humidity Indicating Conditions at Maximum Dry-Bulb {BasedOnField A3}
  97563,                                  ! Barometric Pressure {Pa}
  5.2,                                    ! Wind Speed {m/s}
  170,                                    ! Wind Direction {deg}
  0,                                      ! Sky Clearness
  0,                                      ! Rain Indicator
  0,                                      ! Snow Indicator
  21,                                     ! Day of Month
  7,                                      ! Month
  SummerDesignDay,                        ! Day Type
  0,                                      ! Daylight Saving Time Indicator
  Dewpoint,                               ! Humidity Indicating Type
  ,                                       ! Humidity Indicating Day Schedule Name
  DefaultMultipliers,                     ! Dry-Bulb Temperature Range Modifier Type
  ,                                       ! Dry-Bulb Temperature Range Modifier Schedule Name
  ASHRAETau,                              ! Solar Model Indicator
  ,                                       ! Beam Solar Day Schedule Name
  ,                                       ! Diffuse Solar Day Schedule Name
  0.432,                                  ! ASHRAE Taub {dimensionless}
  2.176;                                  ! ASHRAE Taud {dimensionless}

OS:ComponentData,
  {8cbc885b-d39f-4b4b-8e4d-339228422a1b}, ! Handle
  Component Data 1,                       ! Name
  {e355bd7c-b725-4c9a-8757-89b260af2ff3}, ! UUID
  {dd0b5795-dd34-4082-b0e7-ffe71d9df4b9}, ! Version UUID
  1366309941,                             ! Creation Timestamp
  1366309941,                             ! Version Timestamp
  {5bbeb339-1f1b-413c-bfce-8cea059822f2}; ! Name of Object 1

