
OS:Version,
  {5991c052-ba9a-43fb-ad59-593189235f19}, ! Handle
  0.9.3;                                  ! Version Identifier

OS:SizingPeriod:DesignDay,
  {697d4c65-42d4-4a2b-aeb5-ea7c08ba5e4c}, ! Handle
  PHILADELPHIA Ann Clg 1% Condns Enth=>MDB, ! Name
  30.2,                                   ! Maximum Dry-Bulb Temperature {C}
  10.5,                                   ! Daily Dry-Bulb Temperature Range {deltaC}
  74700,                                  ! Humidity Indicating Conditions at Maximum Dry-Bulb {BasedOnField A3}
  101217,                                 ! Barometric Pressure {Pa}
  2.5,                                    ! Wind Speed {m/s}
  270,                                    ! Wind Direction {deg}
  0,                                      ! Sky Clearness
  0,                                      ! Rain Indicator
  0,                                      ! Snow Indicator
  21,                                     ! Day of Month
  7,                                      ! Month
  SummerDesignDay,                        ! Day Type
  0,                                      ! Daylight Saving Time Indicator
  Enthalpy,                               ! Humidity Indicating Type
  ,                                       ! Humidity Indicating Day Schedule Name
  DefaultMultipliers,                     ! Dry-Bulb Temperature Range Modifier Type
  ,                                       ! Dry-Bulb Temperature Range Modifier Schedule Name
  ASHRAETau,                              ! Solar Model Indicator
  ,                                       ! Beam Solar Day Schedule Name
  ,                                       ! Diffuse Solar Day Schedule Name
  0.524,                                  ! ASHRAE Taub {dimensionless}
  1.834;                                  ! ASHRAE Taud {dimensionless}

OS:ComponentData,
  {1a402f01-29d7-4ea6-8642-5451be9c7699}, ! Handle
  Component Data 1,                       ! Name
  {4161ee62-f97f-488f-a3ff-bc5340a63608}, ! UUID
  {4549e409-a8a8-4688-af8b-1d54c7d3d952}, ! Version UUID
  1366310215,                             ! Creation Timestamp
  1366310215,                             ! Version Timestamp
  {697d4c65-42d4-4a2b-aeb5-ea7c08ba5e4c}; ! Name of Object 1

