
OS:Version,
  {d4b3fe67-fe9c-40c6-b47c-72562400bbcd}, ! Handle
  0.9.3;                                  ! Version Identifier

OS:SizingPeriod:DesignDay,
  {e10f0871-282a-46af-9c6a-6c9f945fd87e}, ! Handle
  REDMOND Ann Htg Wind 99% Condns WS=>MCDB, ! Name
  6.6,                                    ! Maximum Dry-Bulb Temperature {C}
  0,                                      ! Daily Dry-Bulb Temperature Range {deltaC}
  6.6,                                    ! Humidity Indicating Conditions at Maximum Dry-Bulb {BasedOnField A3}
  90531,                                  ! Barometric Pressure {Pa}
  9.3,                                    ! Wind Speed {m/s}
  320,                                    ! Wind Direction {deg}
  0,                                      ! Sky Clearness
  0,                                      ! Rain Indicator
  0,                                      ! Snow Indicator
  21,                                     ! Day of Month
  12,                                     ! Month
  WinterDesignDay,                        ! Day Type
  0,                                      ! Daylight Saving Time Indicator
  Wetbulb,                                ! Humidity Indicating Type
  ,                                       ! Humidity Indicating Day Schedule Name
  DefaultMultipliers,                     ! Dry-Bulb Temperature Range Modifier Type
  ,                                       ! Dry-Bulb Temperature Range Modifier Schedule Name
  ASHRAEClearSky;                         ! Solar Model Indicator

OS:ComponentData,
  {e9c05f2c-d2e9-4cb5-bcad-8bf987e7fd9a}, ! Handle
  Component Data 1,                       ! Name
  {c339aefa-bead-46ca-82a5-ee938e9cba00}, ! UUID
  {ac828383-c2e7-4ef4-96ad-61d2db2c0404}, ! Version UUID
  1366310101,                             ! Creation Timestamp
  1366310101,                             ! Version Timestamp
  {e10f0871-282a-46af-9c6a-6c9f945fd87e}; ! Name of Object 1

