
OS:Version,
  {2d5d18a3-55a6-4328-b2ef-9529f2bcb00a}, ! Handle
  0.9.3;                                  ! Version Identifier

OS:SizingPeriod:DesignDay,
  {7e21db11-7f36-45dc-9e14-2e065396fe0c}, ! Handle
  Oklahoma City Will Rogers Wor Ann Clg 2% Condns WB=>MDB, ! Name
  31.6,                                   ! Maximum Dry-Bulb Temperature {C}
  11.7,                                   ! Daily Dry-Bulb Temperature Range {deltaC}
  24.3,                                   ! Humidity Indicating Conditions at Maximum Dry-Bulb {BasedOnField A3}
  96634,                                  ! Barometric Pressure {Pa}
  5.5,                                    ! Wind Speed {m/s}
  170,                                    ! Wind Direction {deg}
  0,                                      ! Sky Clearness
  0,                                      ! Rain Indicator
  0,                                      ! Snow Indicator
  21,                                     ! Day of Month
  7,                                      ! Month
  SummerDesignDay,                        ! Day Type
  0,                                      ! Daylight Saving Time Indicator
  Wetbulb,                                ! Humidity Indicating Type
  ,                                       ! Humidity Indicating Day Schedule Name
  DefaultMultipliers,                     ! Dry-Bulb Temperature Range Modifier Type
  ,                                       ! Dry-Bulb Temperature Range Modifier Schedule Name
  ASHRAETau,                              ! Solar Model Indicator
  ,                                       ! Beam Solar Day Schedule Name
  ,                                       ! Diffuse Solar Day Schedule Name
  0.426,                                  ! ASHRAE Taub {dimensionless}
  2.214;                                  ! ASHRAE Taud {dimensionless}

OS:ComponentData,
  {5b8683e1-4528-4e56-80fb-d91b7fae26ec}, ! Handle
  Component Data 1,                       ! Name
  {0b68ca38-4878-4db8-9216-7db2dec53155}, ! UUID
  {c61d72f3-0b4e-4976-86ea-18d741157ee9}, ! Version UUID
  1366309927,                             ! Creation Timestamp
  1366309927,                             ! Version Timestamp
  {7e21db11-7f36-45dc-9e14-2e065396fe0c}; ! Name of Object 1

