
OS:Version,
  {83e561fc-2e80-4e01-8793-00f634989d72}, ! Handle
  0.9.3;                                  ! Version Identifier

OS:SizingPeriod:DesignDay,
  {27864c25-ebde-49e1-9e3c-ee167c25b132}, ! Handle
  Sheridan County Arpt Ann Clg 2% Condns WB=>MDB, ! Name
  28.7,                                   ! Maximum Dry-Bulb Temperature {C}
  17.2,                                   ! Daily Dry-Bulb Temperature Range {deltaC}
  17.8,                                   ! Humidity Indicating Conditions at Maximum Dry-Bulb {BasedOnField A3}
  87630,                                  ! Barometric Pressure {Pa}
  3.7,                                    ! Wind Speed {m/s}
  310,                                    ! Wind Direction {deg}
  0,                                      ! Sky Clearness
  0,                                      ! Rain Indicator
  0,                                      ! Snow Indicator
  21,                                     ! Day of Month
  7,                                      ! Month
  SummerDesignDay,                        ! Day Type
  0,                                      ! Daylight Saving Time Indicator
  Wetbulb,                                ! Humidity Indicating Type
  ,                                       ! Humidity Indicating Day Schedule Name
  DefaultMultipliers,                     ! Dry-Bulb Temperature Range Modifier Type
  ,                                       ! Dry-Bulb Temperature Range Modifier Schedule Name
  ASHRAETau,                              ! Solar Model Indicator
  ,                                       ! Beam Solar Day Schedule Name
  ,                                       ! Diffuse Solar Day Schedule Name
  0.407,                                  ! ASHRAE Taub {dimensionless}
  2.098;                                  ! ASHRAE Taud {dimensionless}

OS:ComponentData,
  {abe4bc73-8be9-4d1d-a82a-4a6231653bfa}, ! Handle
  Component Data 1,                       ! Name
  {1ed8a1ca-9ba5-4cb3-92ce-b4bb52f0f6fa}, ! UUID
  {c0c093ea-39c0-4429-b565-38c9efbf42fd}, ! Version UUID
  1366311787,                             ! Creation Timestamp
  1366311787,                             ! Version Timestamp
  {27864c25-ebde-49e1-9e3c-ee167c25b132}; ! Name of Object 1

