
OS:Version,
  {3483b08e-8cfd-4bd4-bc15-7caf806e00c8}, ! Handle
  0.9.3;                                  ! Version Identifier

OS:SizingPeriod:DesignDay,
  {d88a422f-4c50-4679-949c-d1ea30a16200}, ! Handle
  Washington Dc Reagan Ap Ann Clg 2% Condns WB=>MDB, ! Name
  29.6,                                   ! Maximum Dry-Bulb Temperature {C}
  8.9,                                    ! Daily Dry-Bulb Temperature Range {deltaC}
  24.7,                                   ! Humidity Indicating Conditions at Maximum Dry-Bulb {BasedOnField A3}
  101289,                                 ! Barometric Pressure {Pa}
  4.6,                                    ! Wind Speed {m/s}
  170,                                    ! Wind Direction {deg}
  0,                                      ! Sky Clearness
  0,                                      ! Rain Indicator
  0,                                      ! Snow Indicator
  21,                                     ! Day of Month
  7,                                      ! Month
  SummerDesignDay,                        ! Day Type
  0,                                      ! Daylight Saving Time Indicator
  Wetbulb,                                ! Humidity Indicating Type
  ,                                       ! Humidity Indicating Day Schedule Name
  DefaultMultipliers,                     ! Dry-Bulb Temperature Range Modifier Type
  ,                                       ! Dry-Bulb Temperature Range Modifier Schedule Name
  ASHRAETau,                              ! Solar Model Indicator
  ,                                       ! Beam Solar Day Schedule Name
  ,                                       ! Diffuse Solar Day Schedule Name
  0.563,                                  ! ASHRAE Taub {dimensionless}
  1.747;                                  ! ASHRAE Taud {dimensionless}

OS:ComponentData,
  {c7784f5e-037a-4fc1-afa5-f8b939bdfc78}, ! Handle
  Component Data 1,                       ! Name
  {5d9ce566-7e88-4afe-aac7-f700b1f117c4}, ! UUID
  {fda10506-4502-410f-864d-6642e954bb62}, ! Version UUID
  1366311019,                             ! Creation Timestamp
  1366311019,                             ! Version Timestamp
  {d88a422f-4c50-4679-949c-d1ea30a16200}; ! Name of Object 1

