
OS:Version,
  {697389be-4b4c-4907-9813-6886a9187549}, ! Handle
  0.9.3;                                  ! Version Identifier

OS:SizingPeriod:DesignDay,
  {2726e540-6953-47c6-9d52-44d886905247}, ! Handle
  Willmar Ann Clg 2% Condns WB=>MDB,      ! Name
  27,                                     ! Maximum Dry-Bulb Temperature {C}
  10.5,                                   ! Daily Dry-Bulb Temperature Range {deltaC}
  22.3,                                   ! Humidity Indicating Conditions at Maximum Dry-Bulb {BasedOnField A3}
  97249,                                  ! Barometric Pressure {Pa}
  5,                                      ! Wind Speed {m/s}
  160,                                    ! Wind Direction {deg}
  0,                                      ! Sky Clearness
  0,                                      ! Rain Indicator
  0,                                      ! Snow Indicator
  21,                                     ! Day of Month
  7,                                      ! Month
  SummerDesignDay,                        ! Day Type
  0,                                      ! Daylight Saving Time Indicator
  Wetbulb,                                ! Humidity Indicating Type
  ,                                       ! Humidity Indicating Day Schedule Name
  DefaultMultipliers,                     ! Dry-Bulb Temperature Range Modifier Type
  ,                                       ! Dry-Bulb Temperature Range Modifier Schedule Name
  ASHRAETau,                              ! Solar Model Indicator
  ,                                       ! Beam Solar Day Schedule Name
  ,                                       ! Diffuse Solar Day Schedule Name
  0.398,                                  ! ASHRAE Taub {dimensionless}
  2.251;                                  ! ASHRAE Taud {dimensionless}

OS:ComponentData,
  {77e450b6-f8b0-4bab-aaf1-41472d01c44d}, ! Handle
  Component Data 1,                       ! Name
  {e7dcc287-9dc3-429b-af59-2855de7a7469}, ! UUID
  {80cbd9d9-55e8-48f2-b117-597eafe84502}, ! Version UUID
  1366308458,                             ! Creation Timestamp
  1366308458,                             ! Version Timestamp
  {2726e540-6953-47c6-9d52-44d886905247}; ! Name of Object 1

