
OS:Version,
  {aba9e937-7940-4e80-9e33-bd5edd4e7c8c}, ! Handle
  0.9.3;                                  ! Version Identifier

OS:SizingPeriod:DesignDay,
  {797f3721-129d-4187-baad-09ab19b60300}, ! Handle
  Topeka Ann Hum_n 99% Condns DP=>MCDB,   ! Name
  -13,                                    ! Maximum Dry-Bulb Temperature {C}
  0,                                      ! Daily Dry-Bulb Temperature Range {deltaC}
  -19.3,                                  ! Humidity Indicating Conditions at Maximum Dry-Bulb {BasedOnField A3}
  98123,                                  ! Barometric Pressure {Pa}
  3.6,                                    ! Wind Speed {m/s}
  320,                                    ! Wind Direction {deg}
  0,                                      ! Sky Clearness
  0,                                      ! Rain Indicator
  0,                                      ! Snow Indicator
  21,                                     ! Day of Month
  1,                                      ! Month
  WinterDesignDay,                        ! Day Type
  0,                                      ! Daylight Saving Time Indicator
  Dewpoint,                               ! Humidity Indicating Type
  ,                                       ! Humidity Indicating Day Schedule Name
  DefaultMultipliers,                     ! Dry-Bulb Temperature Range Modifier Type
  ,                                       ! Dry-Bulb Temperature Range Modifier Schedule Name
  ASHRAEClearSky;                         ! Solar Model Indicator

OS:ComponentData,
  {207f7f4b-1d06-47e9-bcaa-de2110274f1a}, ! Handle
  Component Data 1,                       ! Name
  {ad0bad8e-1fb6-426a-9cc6-d44378c7ff17}, ! UUID
  {6e166816-a4d1-4c64-ab88-265fcc141c26}, ! Version UUID
  1366307583,                             ! Creation Timestamp
  1366307583,                             ! Version Timestamp
  {797f3721-129d-4187-baad-09ab19b60300}; ! Name of Object 1

