
OS:Version,
  {6745f2ef-d657-46b5-9787-63cea301819a}, ! Handle
  0.9.3;                                  ! Version Identifier

OS:SizingPeriod:DesignDay,
  {8d8876b0-08f7-4071-8cf0-225231484f6b}, ! Handle
  Naval Air Station Ann Htg 99.6% Condns DB, ! Name
  -19.1,                                  ! Maximum Dry-Bulb Temperature {C}
  0,                                      ! Daily Dry-Bulb Temperature Range {deltaC}
  -19.1,                                  ! Humidity Indicating Conditions at Maximum Dry-Bulb {BasedOnField A3}
  101073,                                 ! Barometric Pressure {Pa}
  2,                                      ! Wind Speed {m/s}
  0,                                      ! Wind Direction {deg}
  0,                                      ! Sky Clearness
  0,                                      ! Rain Indicator
  0,                                      ! Snow Indicator
  21,                                     ! Day of Month
  1,                                      ! Month
  WinterDesignDay,                        ! Day Type
  0,                                      ! Daylight Saving Time Indicator
  Wetbulb,                                ! Humidity Indicating Type
  ,                                       ! Humidity Indicating Day Schedule Name
  DefaultMultipliers,                     ! Dry-Bulb Temperature Range Modifier Type
  ,                                       ! Dry-Bulb Temperature Range Modifier Schedule Name
  ASHRAEClearSky;                         ! Solar Model Indicator

OS:ComponentData,
  {095ee829-b673-4f98-bf71-fef073593ce5}, ! Handle
  Component Data 1,                       ! Name
  {1465933c-f947-4144-9d8e-736be5de94db}, ! UUID
  {a481d37c-00b4-42ec-a22d-e9702f3ddd8d}, ! Version UUID
  1366307881,                             ! Creation Timestamp
  1366307881,                             ! Version Timestamp
  {8d8876b0-08f7-4071-8cf0-225231484f6b}; ! Name of Object 1

