
OS:Version,
  {8ee63e50-68f3-4f28-98c1-419a225678bf}, ! Handle
  0.9.3;                                  ! Version Identifier

OS:SizingPeriod:DesignDay,
  {5066a53c-4981-49e4-8686-3e6ebd96dbab}, ! Handle
  Sidney Richland Ann Htg 99.6% Condns DB, ! Name
  -28.5,                                  ! Maximum Dry-Bulb Temperature {C}
  0,                                      ! Daily Dry-Bulb Temperature Range {deltaC}
  -28.5,                                  ! Humidity Indicating Conditions at Maximum Dry-Bulb {BasedOnField A3}
  94265,                                  ! Barometric Pressure {Pa}
  2.4,                                    ! Wind Speed {m/s}
  190,                                    ! Wind Direction {deg}
  0,                                      ! Sky Clearness
  0,                                      ! Rain Indicator
  0,                                      ! Snow Indicator
  21,                                     ! Day of Month
  1,                                      ! Month
  WinterDesignDay,                        ! Day Type
  0,                                      ! Daylight Saving Time Indicator
  Wetbulb,                                ! Humidity Indicating Type
  ,                                       ! Humidity Indicating Day Schedule Name
  DefaultMultipliers,                     ! Dry-Bulb Temperature Range Modifier Type
  ,                                       ! Dry-Bulb Temperature Range Modifier Schedule Name
  ASHRAEClearSky;                         ! Solar Model Indicator

OS:ComponentData,
  {db74e076-3224-490f-97ae-9396ba98d93d}, ! Handle
  Component Data 1,                       ! Name
  {775e2657-43d7-4491-9dca-158b293a9e4d}, ! UUID
  {d5c0bc87-6ec1-4194-a680-5afba006265c}, ! Version UUID
  1366308852,                             ! Creation Timestamp
  1366308852,                             ! Version Timestamp
  {5066a53c-4981-49e4-8686-3e6ebd96dbab}; ! Name of Object 1

