
OS:Version,
  {681de055-a7d2-41a0-a77c-fcc3c33b8d33}, ! Handle
  0.9.3;                                  ! Version Identifier

OS:SizingPeriod:DesignDay,
  {56936a74-653d-499c-a844-65af5ce527af}, ! Handle
  Sioux City Sioux Gateway Ap Ann Hum_n 99% Condns DP=>MCDB, ! Name
  -19.4,                                  ! Maximum Dry-Bulb Temperature {C}
  0,                                      ! Daily Dry-Bulb Temperature Range {deltaC}
  -24,                                    ! Humidity Indicating Conditions at Maximum Dry-Bulb {BasedOnField A3}
  97388,                                  ! Barometric Pressure {Pa}
  5.2,                                    ! Wind Speed {m/s}
  320,                                    ! Wind Direction {deg}
  0,                                      ! Sky Clearness
  0,                                      ! Rain Indicator
  0,                                      ! Snow Indicator
  21,                                     ! Day of Month
  1,                                      ! Month
  WinterDesignDay,                        ! Day Type
  0,                                      ! Daylight Saving Time Indicator
  Dewpoint,                               ! Humidity Indicating Type
  ,                                       ! Humidity Indicating Day Schedule Name
  DefaultMultipliers,                     ! Dry-Bulb Temperature Range Modifier Type
  ,                                       ! Dry-Bulb Temperature Range Modifier Schedule Name
  ASHRAEClearSky;                         ! Solar Model Indicator

