
OS:Version,
  {d99eeb42-5dd4-4f9a-ab80-ecc3f4cdf9f8}, ! Handle
  0.9.3;                                  ! Version Identifier

OS:SizingPeriod:DesignDay,
  {148372d8-7fa1-43ab-949b-9d21fd49f6be}, ! Handle
  Pensacola Forest Sherman Nas Ann Clg 2% Condns DP=>MDB, ! Name
  29,                                     ! Maximum Dry-Bulb Temperature {C}
  8.3,                                    ! Daily Dry-Bulb Temperature Range {deltaC}
  25.2,                                   ! Humidity Indicating Conditions at Maximum Dry-Bulb {BasedOnField A3}
  101205,                                 ! Barometric Pressure {Pa}
  4.5,                                    ! Wind Speed {m/s}
  210,                                    ! Wind Direction {deg}
  0,                                      ! Sky Clearness
  0,                                      ! Rain Indicator
  0,                                      ! Snow Indicator
  21,                                     ! Day of Month
  7,                                      ! Month
  SummerDesignDay,                        ! Day Type
  0,                                      ! Daylight Saving Time Indicator
  Dewpoint,                               ! Humidity Indicating Type
  ,                                       ! Humidity Indicating Day Schedule Name
  DefaultMultipliers,                     ! Dry-Bulb Temperature Range Modifier Type
  ,                                       ! Dry-Bulb Temperature Range Modifier Schedule Name
  ASHRAETau,                              ! Solar Model Indicator
  ,                                       ! Beam Solar Day Schedule Name
  ,                                       ! Diffuse Solar Day Schedule Name
  0.531,                                  ! ASHRAE Taub {dimensionless}
  1.898;                                  ! ASHRAE Taud {dimensionless}

OS:ComponentData,
  {f918f684-a67c-47c0-a2e6-cd49635855d4}, ! Handle
  Component Data 1,                       ! Name
  {6cab60ac-8455-4f2b-8cb5-c1beb438490e}, ! UUID
  {493eb00e-703f-4d01-a32a-29ab4c58f968}, ! Version UUID
  1366306902,                             ! Creation Timestamp
  1366306902,                             ! Version Timestamp
  {148372d8-7fa1-43ab-949b-9d21fd49f6be}; ! Name of Object 1

