
OS:Version,
  {6cd42ab9-dded-466e-9767-5c8d0a5a3976}, ! Handle
  0.9.3;                                  ! Version Identifier

OS:SizingPeriod:DesignDay,
  {d68c1577-ccd0-403e-a487-d14c75787b83}, ! Handle
  Minneapolis St Paul IntL Arp Ann Clg 1% Condns WB=>MDB, ! Name
  29,                                     ! Maximum Dry-Bulb Temperature {C}
  9.9,                                    ! Daily Dry-Bulb Temperature Range {deltaC}
  23.9,                                   ! Humidity Indicating Conditions at Maximum Dry-Bulb {BasedOnField A3}
  98311,                                  ! Barometric Pressure {Pa}
  6,                                      ! Wind Speed {m/s}
  180,                                    ! Wind Direction {deg}
  0,                                      ! Sky Clearness
  0,                                      ! Rain Indicator
  0,                                      ! Snow Indicator
  21,                                     ! Day of Month
  7,                                      ! Month
  SummerDesignDay,                        ! Day Type
  0,                                      ! Daylight Saving Time Indicator
  Wetbulb,                                ! Humidity Indicating Type
  ,                                       ! Humidity Indicating Day Schedule Name
  DefaultMultipliers,                     ! Dry-Bulb Temperature Range Modifier Type
  ,                                       ! Dry-Bulb Temperature Range Modifier Schedule Name
  ASHRAETau,                              ! Solar Model Indicator
  ,                                       ! Beam Solar Day Schedule Name
  ,                                       ! Diffuse Solar Day Schedule Name
  0.416,                                  ! ASHRAE Taub {dimensionless}
  2.18;                                   ! ASHRAE Taud {dimensionless}

OS:ComponentData,
  {4c4cf6d9-1a6e-4d30-93c3-eee97d1094ae}, ! Handle
  Component Data 1,                       ! Name
  {2ff35966-380f-4bac-9b0a-40289cffac5b}, ! UUID
  {0fe4430d-5a75-4596-a087-de615452c18a}, ! Version UUID
  1366308324,                             ! Creation Timestamp
  1366308324,                             ! Version Timestamp
  {d68c1577-ccd0-403e-a487-d14c75787b83}; ! Name of Object 1

