
OS:Version,
  {815a8cfa-ffe2-4128-b0aa-efcff06d1736}, ! Handle
  0.9.3;                                  ! Version Identifier

OS:SizingPeriod:DesignDay,
  {f7b36f17-0fed-481c-9f09-e04c1d395e00}, ! Handle
  SYRACUSE Ann Htg Wind 99% Condns WS=>MCDB, ! Name
  -5.9,                                   ! Maximum Dry-Bulb Temperature {C}
  0,                                      ! Daily Dry-Bulb Temperature Range {deltaC}
  -5.9,                                   ! Humidity Indicating Conditions at Maximum Dry-Bulb {BasedOnField A3}
  99844,                                  ! Barometric Pressure {Pa}
  11.9,                                   ! Wind Speed {m/s}
  90,                                     ! Wind Direction {deg}
  0,                                      ! Sky Clearness
  0,                                      ! Rain Indicator
  0,                                      ! Snow Indicator
  21,                                     ! Day of Month
  1,                                      ! Month
  WinterDesignDay,                        ! Day Type
  0,                                      ! Daylight Saving Time Indicator
  Wetbulb,                                ! Humidity Indicating Type
  ,                                       ! Humidity Indicating Day Schedule Name
  DefaultMultipliers,                     ! Dry-Bulb Temperature Range Modifier Type
  ,                                       ! Dry-Bulb Temperature Range Modifier Schedule Name
  ASHRAEClearSky;                         ! Solar Model Indicator

OS:ComponentData,
  {66766552-92d5-45e7-b743-fc77f83d5974}, ! Handle
  Component Data 1,                       ! Name
  {02e220ac-fcc0-4d4f-b6dd-1167cccc9cbc}, ! UUID
  {9fa65677-0201-401e-b1f9-623723f6237b}, ! Version UUID
  1366309739,                             ! Creation Timestamp
  1366309739,                             ! Version Timestamp
  {f7b36f17-0fed-481c-9f09-e04c1d395e00}; ! Name of Object 1

