
OS:Version,
  {2aab76e4-1bda-43f3-9569-496a5f268f1c}, ! Handle
  0.9.3;                                  ! Version Identifier

OS:SizingPeriod:DesignDay,
  {a9b39b84-4eeb-4165-857a-c61b42375dd4}, ! Handle
  Roseau Muni  Awos Ann Htg Wind 99.6% Condns WS=>MCDB, ! Name
  -10.9,                                  ! Maximum Dry-Bulb Temperature {C}
  0,                                      ! Daily Dry-Bulb Temperature Range {deltaC}
  -10.9,                                  ! Humidity Indicating Conditions at Maximum Dry-Bulb {BasedOnField A3}
  97504,                                  ! Barometric Pressure {Pa}
  10.9,                                   ! Wind Speed {m/s}
  210,                                    ! Wind Direction {deg}
  0,                                      ! Sky Clearness
  0,                                      ! Rain Indicator
  0,                                      ! Snow Indicator
  21,                                     ! Day of Month
  1,                                      ! Month
  WinterDesignDay,                        ! Day Type
  0,                                      ! Daylight Saving Time Indicator
  Wetbulb,                                ! Humidity Indicating Type
  ,                                       ! Humidity Indicating Day Schedule Name
  DefaultMultipliers,                     ! Dry-Bulb Temperature Range Modifier Type
  ,                                       ! Dry-Bulb Temperature Range Modifier Schedule Name
  ASHRAEClearSky;                         ! Solar Model Indicator

OS:ComponentData,
  {de426028-d9eb-43a8-b53f-59ba620cc76b}, ! Handle
  Component Data 1,                       ! Name
  {72b8f727-531c-4a13-a03c-96d629633b31}, ! UUID
  {6395b365-6ba7-44b7-a1ac-bd13bd3aca22}, ! Version UUID
  1366308403,                             ! Creation Timestamp
  1366308403,                             ! Version Timestamp
  {a9b39b84-4eeb-4165-857a-c61b42375dd4}; ! Name of Object 1

