
OS:Version,
  {3d18e598-2610-49cc-aae6-67edc6913e91}, ! Handle
  0.9.3;                                  ! Version Identifier

OS:SizingPeriod:DesignDay,
  {4deb8b18-1800-4cd2-9b13-9b506656845d}, ! Handle
  Myrtle Beach Afb Ann Hum_n 99.6% Condns DP=>MCDB, ! Name
  0.1,                                    ! Maximum Dry-Bulb Temperature {C}
  0,                                      ! Daily Dry-Bulb Temperature Range {deltaC}
  -14.1,                                  ! Humidity Indicating Conditions at Maximum Dry-Bulb {BasedOnField A3}
  101229,                                 ! Barometric Pressure {Pa}
  2.2,                                    ! Wind Speed {m/s}
  0,                                      ! Wind Direction {deg}
  0,                                      ! Sky Clearness
  0,                                      ! Rain Indicator
  0,                                      ! Snow Indicator
  21,                                     ! Day of Month
  1,                                      ! Month
  WinterDesignDay,                        ! Day Type
  0,                                      ! Daylight Saving Time Indicator
  Dewpoint,                               ! Humidity Indicating Type
  ,                                       ! Humidity Indicating Day Schedule Name
  DefaultMultipliers,                     ! Dry-Bulb Temperature Range Modifier Type
  ,                                       ! Dry-Bulb Temperature Range Modifier Schedule Name
  ASHRAEClearSky;                         ! Solar Model Indicator

OS:ComponentData,
  {db88fcbf-1d0f-4b07-af58-2c8f16710c53}, ! Handle
  Component Data 1,                       ! Name
  {c47755a5-4772-4f8f-8f30-9860b7670b67}, ! UUID
  {dad4d9d4-1c09-4357-8aad-e097814769e1}, ! Version UUID
  1366310372,                             ! Creation Timestamp
  1366310372,                             ! Version Timestamp
  {4deb8b18-1800-4cd2-9b13-9b506656845d}; ! Name of Object 1

