
OS:Version,
  {4f567dc7-9538-40a8-84c3-d0d0c8a4fe9b}, ! Handle
  0.9.3;                                  ! Version Identifier

OS:SizingPeriod:DesignDay,
  {85972189-0b57-4f85-acbe-5ec83f44a2d3}, ! Handle
  Winona Muni  Awos Ann Htg 99.6% Condns DB, ! Name
  -23,                                    ! Maximum Dry-Bulb Temperature {C}
  0,                                      ! Daily Dry-Bulb Temperature Range {deltaC}
  -23,                                    ! Humidity Indicating Conditions at Maximum Dry-Bulb {BasedOnField A3}
  98945,                                  ! Barometric Pressure {Pa}
  1.5,                                    ! Wind Speed {m/s}
  290,                                    ! Wind Direction {deg}
  0,                                      ! Sky Clearness
  0,                                      ! Rain Indicator
  0,                                      ! Snow Indicator
  21,                                     ! Day of Month
  1,                                      ! Month
  WinterDesignDay,                        ! Day Type
  0,                                      ! Daylight Saving Time Indicator
  Wetbulb,                                ! Humidity Indicating Type
  ,                                       ! Humidity Indicating Day Schedule Name
  DefaultMultipliers,                     ! Dry-Bulb Temperature Range Modifier Type
  ,                                       ! Dry-Bulb Temperature Range Modifier Schedule Name
  ASHRAEClearSky;                         ! Solar Model Indicator

