
OS:Version,
  {656e957e-b7c7-4144-8929-f646fc84fa2b}, ! Handle
  0.9.3;                                  ! Version Identifier

OS:SizingPeriod:DesignDay,
  {f1f73e8e-a9d5-4d53-8039-719f9d753170}, ! Handle
  Providence T F Green State Ar Ann Clg 2% Condns Enth=>MDB, ! Name
  26.4,                                   ! Maximum Dry-Bulb Temperature {C}
  9.6,                                    ! Daily Dry-Bulb Temperature Range {deltaC}
  67900,                                  ! Humidity Indicating Conditions at Maximum Dry-Bulb {BasedOnField A3}
  101133,                                 ! Barometric Pressure {Pa}
  5.5,                                    ! Wind Speed {m/s}
  280,                                    ! Wind Direction {deg}
  0,                                      ! Sky Clearness
  0,                                      ! Rain Indicator
  0,                                      ! Snow Indicator
  21,                                     ! Day of Month
  7,                                      ! Month
  SummerDesignDay,                        ! Day Type
  0,                                      ! Daylight Saving Time Indicator
  Enthalpy,                               ! Humidity Indicating Type
  ,                                       ! Humidity Indicating Day Schedule Name
  DefaultMultipliers,                     ! Dry-Bulb Temperature Range Modifier Type
  ,                                       ! Dry-Bulb Temperature Range Modifier Schedule Name
  ASHRAETau,                              ! Solar Model Indicator
  ,                                       ! Beam Solar Day Schedule Name
  ,                                       ! Diffuse Solar Day Schedule Name
  0.507,                                  ! ASHRAE Taub {dimensionless}
  1.885;                                  ! ASHRAE Taud {dimensionless}

OS:ComponentData,
  {9b597ca5-f9d2-440b-b22e-5f1948651803}, ! Handle
  Component Data 1,                       ! Name
  {9b970a45-271c-4d14-86cd-87613b7045f3}, ! UUID
  {d0107220-df1f-4b13-8298-fbfe876e09d1}, ! Version UUID
  1366310304,                             ! Creation Timestamp
  1366310304,                             ! Version Timestamp
  {f1f73e8e-a9d5-4d53-8039-719f9d753170}; ! Name of Object 1

