
OS:Version,
  {ed4ed57e-8d89-4e6d-942c-e151d35023d2}, ! Handle
  0.9.3;                                  ! Version Identifier

OS:SizingPeriod:DesignDay,
  {8e2ad15d-c77e-444a-90d6-ae7749a809f0}, ! Handle
  Norwood Memorial Ann Clg 1% Condns DB=>MWB, ! Name
  31.1,                                   ! Maximum Dry-Bulb Temperature {C}
  11.9,                                   ! Daily Dry-Bulb Temperature Range {deltaC}
  23,                                     ! Humidity Indicating Conditions at Maximum Dry-Bulb {BasedOnField A3}
  101145,                                 ! Barometric Pressure {Pa}
  4.7,                                    ! Wind Speed {m/s}
  280,                                    ! Wind Direction {deg}
  0,                                      ! Sky Clearness
  0,                                      ! Rain Indicator
  0,                                      ! Snow Indicator
  21,                                     ! Day of Month
  7,                                      ! Month
  SummerDesignDay,                        ! Day Type
  0,                                      ! Daylight Saving Time Indicator
  Wetbulb,                                ! Humidity Indicating Type
  ,                                       ! Humidity Indicating Day Schedule Name
  DefaultMultipliers,                     ! Dry-Bulb Temperature Range Modifier Type
  ,                                       ! Dry-Bulb Temperature Range Modifier Schedule Name
  ASHRAETau,                              ! Solar Model Indicator
  ,                                       ! Beam Solar Day Schedule Name
  ,                                       ! Diffuse Solar Day Schedule Name
  0.492,                                  ! ASHRAE Taub {dimensionless}
  1.934;                                  ! ASHRAE Taud {dimensionless}

OS:ComponentData,
  {19581cea-13ea-487d-bebb-333c9a59aa20}, ! Handle
  Component Data 1,                       ! Name
  {9306d165-c14c-4889-a77d-8a3afca6fccb}, ! UUID
  {f54464cf-9bcc-4643-9f0d-423075e08543}, ! Version UUID
  1366307810,                             ! Creation Timestamp
  1366307810,                             ! Version Timestamp
  {8e2ad15d-c77e-444a-90d6-ae7749a809f0}; ! Name of Object 1

