
OS:Version,
  {30263001-48e3-428c-a05d-1f0b9a50eeee}, ! Handle
  0.9.3;                                  ! Version Identifier

OS:SizingPeriod:DesignDay,
  {7f1db124-ce4c-4737-9139-0877b779cddc}, ! Handle
  Mosinee Central Wi Ann Clg .4% Condns DB=>MWB, ! Name
  30.9,                                   ! Maximum Dry-Bulb Temperature {C}
  11.6,                                   ! Daily Dry-Bulb Temperature Range {deltaC}
  22.5,                                   ! Humidity Indicating Conditions at Maximum Dry-Bulb {BasedOnField A3}
  96738,                                  ! Barometric Pressure {Pa}
  4.6,                                    ! Wind Speed {m/s}
  220,                                    ! Wind Direction {deg}
  0,                                      ! Sky Clearness
  0,                                      ! Rain Indicator
  0,                                      ! Snow Indicator
  21,                                     ! Day of Month
  7,                                      ! Month
  SummerDesignDay,                        ! Day Type
  0,                                      ! Daylight Saving Time Indicator
  Wetbulb,                                ! Humidity Indicating Type
  ,                                       ! Humidity Indicating Day Schedule Name
  DefaultMultipliers,                     ! Dry-Bulb Temperature Range Modifier Type
  ,                                       ! Dry-Bulb Temperature Range Modifier Schedule Name
  ASHRAETau,                              ! Solar Model Indicator
  ,                                       ! Beam Solar Day Schedule Name
  ,                                       ! Diffuse Solar Day Schedule Name
  0.415,                                  ! ASHRAE Taub {dimensionless}
  2.153;                                  ! ASHRAE Taud {dimensionless}

OS:ComponentData,
  {151b810a-4cee-4a8d-97c8-362ad0cdd0e5}, ! Handle
  Component Data 1,                       ! Name
  {6b54cbb6-5751-4fd9-8286-0da60d0e36ca}, ! UUID
  {af1cc910-256f-4879-95a4-bcba15b1a8a6}, ! Version UUID
  1366311569,                             ! Creation Timestamp
  1366311569,                             ! Version Timestamp
  {7f1db124-ce4c-4737-9139-0877b779cddc}; ! Name of Object 1

