
OS:Version,
  {53fdaff2-9c9f-4feb-8261-39d3d223eda1}, ! Handle
  0.9.3;                                  ! Version Identifier

OS:SizingPeriod:DesignDay,
  {53311709-7010-4571-ad53-3325166e93c0}, ! Handle
  Saint Mary S  Awos Ann Htg 99.6% Condns DB, ! Name
  -31.2,                                  ! Maximum Dry-Bulb Temperature {C}
  0,                                      ! Daily Dry-Bulb Temperature Range {deltaC}
  -31.2,                                  ! Humidity Indicating Conditions at Maximum Dry-Bulb {BasedOnField A3}
  100189,                                 ! Barometric Pressure {Pa}
  2.9,                                    ! Wind Speed {m/s}
  30,                                     ! Wind Direction {deg}
  0,                                      ! Sky Clearness
  0,                                      ! Rain Indicator
  0,                                      ! Snow Indicator
  21,                                     ! Day of Month
  1,                                      ! Month
  WinterDesignDay,                        ! Day Type
  0,                                      ! Daylight Saving Time Indicator
  Wetbulb,                                ! Humidity Indicating Type
  ,                                       ! Humidity Indicating Day Schedule Name
  DefaultMultipliers,                     ! Dry-Bulb Temperature Range Modifier Type
  ,                                       ! Dry-Bulb Temperature Range Modifier Schedule Name
  ASHRAEClearSky;                         ! Solar Model Indicator

OS:ComponentData,
  {551728df-56e0-4e25-95eb-3a0bbc481c32}, ! Handle
  Component Data 1,                       ! Name
  {60ac961b-b944-47f7-b6b9-3f7a681afa94}, ! UUID
  {81489034-7d81-43f4-b8a0-6c3c30c003a4}, ! Version UUID
  1366305512,                             ! Creation Timestamp
  1366305512,                             ! Version Timestamp
  {53311709-7010-4571-ad53-3325166e93c0}; ! Name of Object 1

