
OS:Version,
  {89fcb9c9-4e29-461f-badc-63ed2c9864bf}, ! Handle
  0.9.3;                                  ! Version Identifier

OS:SizingPeriod:DesignDay,
  {ecfd8d14-ea28-4f25-8ebd-c07de5d38cf3}, ! Handle
  Ohio State Universi Ann Clg 1% Condns Enth=>MDB, ! Name
  29.2,                                   ! Maximum Dry-Bulb Temperature {C}
  10.4,                                   ! Daily Dry-Bulb Temperature Range {deltaC}
  72900,                                  ! Humidity Indicating Conditions at Maximum Dry-Bulb {BasedOnField A3}
  97971,                                  ! Barometric Pressure {Pa}
  4.5,                                    ! Wind Speed {m/s}
  240,                                    ! Wind Direction {deg}
  0,                                      ! Sky Clearness
  0,                                      ! Rain Indicator
  0,                                      ! Snow Indicator
  21,                                     ! Day of Month
  7,                                      ! Month
  SummerDesignDay,                        ! Day Type
  0,                                      ! Daylight Saving Time Indicator
  Enthalpy,                               ! Humidity Indicating Type
  ,                                       ! Humidity Indicating Day Schedule Name
  DefaultMultipliers,                     ! Dry-Bulb Temperature Range Modifier Type
  ,                                       ! Dry-Bulb Temperature Range Modifier Schedule Name
  ASHRAETau,                              ! Solar Model Indicator
  ,                                       ! Beam Solar Day Schedule Name
  ,                                       ! Diffuse Solar Day Schedule Name
  0.479,                                  ! ASHRAE Taub {dimensionless}
  1.957;                                  ! ASHRAE Taud {dimensionless}

OS:ComponentData,
  {34e34b75-28d3-4b4b-b069-ceca3ce1c1fc}, ! Handle
  Component Data 1,                       ! Name
  {6453c2d2-2264-44f9-953f-c0ec28496f37}, ! UUID
  {941a5582-2802-4aed-849e-954c321a8662}, ! Version UUID
  1366309842,                             ! Creation Timestamp
  1366309842,                             ! Version Timestamp
  {ecfd8d14-ea28-4f25-8ebd-c07de5d38cf3}; ! Name of Object 1

