
OS:Version,
  {f419d636-0195-46d8-8291-1d58dfdcef96}, ! Handle
  0.9.3;                                  ! Version Identifier

OS:SizingPeriod:DesignDay,
  {3cbad626-510a-4086-8bc5-efe8f404011e}, ! Handle
  Yakima Ann Clg 1% Condns DB=>MWB,       ! Name
  33.6,                                   ! Maximum Dry-Bulb Temperature {C}
  17.9,                                   ! Daily Dry-Bulb Temperature Range {deltaC}
  18.5,                                   ! Humidity Indicating Conditions at Maximum Dry-Bulb {BasedOnField A3}
  97481,                                  ! Barometric Pressure {Pa}
  2.7,                                    ! Wind Speed {m/s}
  100,                                    ! Wind Direction {deg}
  0,                                      ! Sky Clearness
  0,                                      ! Rain Indicator
  0,                                      ! Snow Indicator
  21,                                     ! Day of Month
  7,                                      ! Month
  SummerDesignDay,                        ! Day Type
  0,                                      ! Daylight Saving Time Indicator
  Wetbulb,                                ! Humidity Indicating Type
  ,                                       ! Humidity Indicating Day Schedule Name
  DefaultMultipliers,                     ! Dry-Bulb Temperature Range Modifier Type
  ,                                       ! Dry-Bulb Temperature Range Modifier Schedule Name
  ASHRAETau,                              ! Solar Model Indicator
  ,                                       ! Beam Solar Day Schedule Name
  ,                                       ! Diffuse Solar Day Schedule Name
  0.395,                                  ! ASHRAE Taub {dimensionless}
  2.249;                                  ! ASHRAE Taud {dimensionless}

OS:ComponentData,
  {c2b70ae7-1299-43ff-9a45-9db57c124c9a}, ! Handle
  Component Data 1,                       ! Name
  {963a2e95-3a40-4c16-8ae8-2451f2d6993d}, ! UUID
  {e3dc9b67-c6ca-4d7f-be2d-6df8380adc49}, ! Version UUID
  1366311447,                             ! Creation Timestamp
  1366311447,                             ! Version Timestamp
  {3cbad626-510a-4086-8bc5-efe8f404011e}; ! Name of Object 1

