
OS:Version,
  {459c11d2-0207-43ce-b7df-22ba8fbfcfec}, ! Handle
  0.9.3;                                  ! Version Identifier

OS:SizingPeriod:DesignDay,
  {6059c91a-9611-4af7-a6f7-cb0c3533fe01}, ! Handle
  Southwest Florida I Ann Clg 2% Condns Enth=>MDB, ! Name
  30.4,                                   ! Maximum Dry-Bulb Temperature {C}
  9.1,                                    ! Daily Dry-Bulb Temperature Range {deltaC}
  81200,                                  ! Humidity Indicating Conditions at Maximum Dry-Bulb {BasedOnField A3}
  101217,                                 ! Barometric Pressure {Pa}
  3.7,                                    ! Wind Speed {m/s}
  100,                                    ! Wind Direction {deg}
  0,                                      ! Sky Clearness
  0,                                      ! Rain Indicator
  0,                                      ! Snow Indicator
  21,                                     ! Day of Month
  8,                                      ! Month
  SummerDesignDay,                        ! Day Type
  0,                                      ! Daylight Saving Time Indicator
  Enthalpy,                               ! Humidity Indicating Type
  ,                                       ! Humidity Indicating Day Schedule Name
  DefaultMultipliers,                     ! Dry-Bulb Temperature Range Modifier Type
  ,                                       ! Dry-Bulb Temperature Range Modifier Schedule Name
  ASHRAETau,                              ! Solar Model Indicator
  ,                                       ! Beam Solar Day Schedule Name
  ,                                       ! Diffuse Solar Day Schedule Name
  0.491,                                  ! ASHRAE Taub {dimensionless}
  2.021;                                  ! ASHRAE Taud {dimensionless}

OS:ComponentData,
  {30e75351-d4d7-45e9-83ac-e1f501590725}, ! Handle
  Component Data 1,                       ! Name
  {d4697d93-25d8-40e9-8c06-467fcb80c0da}, ! UUID
  {83417e28-a0a7-48af-9395-c408110e5265}, ! Version UUID
  1366306913,                             ! Creation Timestamp
  1366306913,                             ! Version Timestamp
  {6059c91a-9611-4af7-a6f7-cb0c3533fe01}; ! Name of Object 1

