
OS:Version,
  {dde1e354-27e0-489b-9a6d-f3c2793ef8ef}, ! Handle
  0.9.3;                                  ! Version Identifier

OS:SizingPeriod:DesignDay,
  {71c76230-970e-4bbd-966f-7ef7d8ad193e}, ! Handle
  Martinsburg Eastern Wv Reg Ap Ann Htg 99% Condns DB, ! Name
  -9.7,                                   ! Maximum Dry-Bulb Temperature {C}
  0,                                      ! Daily Dry-Bulb Temperature Range {deltaC}
  -9.7,                                   ! Humidity Indicating Conditions at Maximum Dry-Bulb {BasedOnField A3}
  99394,                                  ! Barometric Pressure {Pa}
  2.8,                                    ! Wind Speed {m/s}
  270,                                    ! Wind Direction {deg}
  0,                                      ! Sky Clearness
  0,                                      ! Rain Indicator
  0,                                      ! Snow Indicator
  21,                                     ! Day of Month
  1,                                      ! Month
  WinterDesignDay,                        ! Day Type
  0,                                      ! Daylight Saving Time Indicator
  Wetbulb,                                ! Humidity Indicating Type
  ,                                       ! Humidity Indicating Day Schedule Name
  DefaultMultipliers,                     ! Dry-Bulb Temperature Range Modifier Type
  ,                                       ! Dry-Bulb Temperature Range Modifier Schedule Name
  ASHRAEClearSky;                         ! Solar Model Indicator

OS:ComponentData,
  {905a4856-e57b-4f9a-971d-443ad943e5dd}, ! Handle
  Component Data 1,                       ! Name
  {c962546b-196e-4ab0-b908-2ba6ec908a4e}, ! UUID
  {7d6f2ecc-a510-4108-911c-a8e47099a3b7}, ! Version UUID
  1366311664,                             ! Creation Timestamp
  1366311664,                             ! Version Timestamp
  {71c76230-970e-4bbd-966f-7ef7d8ad193e}; ! Name of Object 1

