
OS:Version,
  {034a30e8-d4d7-486b-8554-f79593858893}, ! Handle
  0.9.3;                                  ! Version Identifier

OS:SizingPeriod:DesignDay,
  {d21f49bc-bb03-482b-8506-054270b9699a}, ! Handle
  Mitchell  Awos Ann Htg 99% Condns DB,   ! Name
  -21.2,                                  ! Maximum Dry-Bulb Temperature {C}
  0,                                      ! Daily Dry-Bulb Temperature Range {deltaC}
  -21.2,                                  ! Humidity Indicating Conditions at Maximum Dry-Bulb {BasedOnField A3}
  96646,                                  ! Barometric Pressure {Pa}
  4.6,                                    ! Wind Speed {m/s}
  320,                                    ! Wind Direction {deg}
  0,                                      ! Sky Clearness
  0,                                      ! Rain Indicator
  0,                                      ! Snow Indicator
  21,                                     ! Day of Month
  1,                                      ! Month
  WinterDesignDay,                        ! Day Type
  0,                                      ! Daylight Saving Time Indicator
  Wetbulb,                                ! Humidity Indicating Type
  ,                                       ! Humidity Indicating Day Schedule Name
  DefaultMultipliers,                     ! Dry-Bulb Temperature Range Modifier Type
  ,                                       ! Dry-Bulb Temperature Range Modifier Schedule Name
  ASHRAEClearSky;                         ! Solar Model Indicator

OS:ComponentData,
  {d4bcc802-98a9-4a1e-b7b7-c1be7af843c5}, ! Handle
  Component Data 1,                       ! Name
  {b58acee8-5341-4e9f-809e-7186830f9ba7}, ! UUID
  {b2d2c574-5ac0-4ece-842c-3a4a647b1d2b}, ! Version UUID
  1366310411,                             ! Creation Timestamp
  1366310411,                             ! Version Timestamp
  {d21f49bc-bb03-482b-8506-054270b9699a}; ! Name of Object 1

