
OS:Version,
  {ebf1227e-3105-4a67-b027-c4084bc85a22}, ! Handle
  0.9.3;                                  ! Version Identifier

OS:SizingPeriod:DesignDay,
  {1c0b7d37-f30b-4633-b42e-07b7b2abcac1}, ! Handle
  Prescott Ann Clg .4% Condns WB=>MDB,    ! Name
  27.4,                                   ! Maximum Dry-Bulb Temperature {C}
  14.5,                                   ! Daily Dry-Bulb Temperature Range {deltaC}
  19.5,                                   ! Humidity Indicating Conditions at Maximum Dry-Bulb {BasedOnField A3}
  84173,                                  ! Barometric Pressure {Pa}
  4.8,                                    ! Wind Speed {m/s}
  240,                                    ! Wind Direction {deg}
  0,                                      ! Sky Clearness
  0,                                      ! Rain Indicator
  0,                                      ! Snow Indicator
  21,                                     ! Day of Month
  7,                                      ! Month
  SummerDesignDay,                        ! Day Type
  0,                                      ! Daylight Saving Time Indicator
  Wetbulb,                                ! Humidity Indicating Type
  ,                                       ! Humidity Indicating Day Schedule Name
  DefaultMultipliers,                     ! Dry-Bulb Temperature Range Modifier Type
  ,                                       ! Dry-Bulb Temperature Range Modifier Schedule Name
  ASHRAETau,                              ! Solar Model Indicator
  ,                                       ! Beam Solar Day Schedule Name
  ,                                       ! Diffuse Solar Day Schedule Name
  0.445,                                  ! ASHRAE Taub {dimensionless}
  1.967;                                  ! ASHRAE Taud {dimensionless}

OS:ComponentData,
  {341c93be-e7ac-4927-b1f4-3c75f64d8317}, ! Handle
  Component Data 1,                       ! Name
  {d6f3f116-da53-486a-8832-f568fa0fd37f}, ! UUID
  {59021e81-2cbf-430f-b673-fb39adaa348f}, ! Version UUID
  1366306302,                             ! Creation Timestamp
  1366306302,                             ! Version Timestamp
  {1c0b7d37-f30b-4633-b42e-07b7b2abcac1}; ! Name of Object 1

