
OS:Version,
  {30e51853-31bc-4809-8e64-56f69bbacf9b}, ! Handle
  0.9.3;                                  ! Version Identifier

OS:SizingPeriod:DesignDay,
  {893c9a82-1ddd-4f9f-b6d8-db2b6e7c560d}, ! Handle
  SIOUX_CITY Ann Htg Wind 99.6% Condns WS=>MCDB, ! Name
  -9,                                     ! Maximum Dry-Bulb Temperature {C}
  0,                                      ! Daily Dry-Bulb Temperature Range {deltaC}
  -9,                                     ! Humidity Indicating Conditions at Maximum Dry-Bulb {BasedOnField A3}
  97353,                                  ! Barometric Pressure {Pa}
  16.2,                                   ! Wind Speed {m/s}
  320,                                    ! Wind Direction {deg}
  0,                                      ! Sky Clearness
  0,                                      ! Rain Indicator
  0,                                      ! Snow Indicator
  21,                                     ! Day of Month
  1,                                      ! Month
  WinterDesignDay,                        ! Day Type
  0,                                      ! Daylight Saving Time Indicator
  Wetbulb,                                ! Humidity Indicating Type
  ,                                       ! Humidity Indicating Day Schedule Name
  DefaultMultipliers,                     ! Dry-Bulb Temperature Range Modifier Type
  ,                                       ! Dry-Bulb Temperature Range Modifier Schedule Name
  ASHRAEClearSky;                         ! Solar Model Indicator

OS:ComponentData,
  {f99567f0-de25-4e4e-ad7e-ea1725a228b8}, ! Handle
  Component Data 1,                       ! Name
  {3ffb2eca-646a-4e10-934a-f8d44eedc533}, ! UUID
  {35f7839c-bd99-430f-97fb-cff58dff9168}, ! Version UUID
  1366307238,                             ! Creation Timestamp
  1366307238,                             ! Version Timestamp
  {893c9a82-1ddd-4f9f-b6d8-db2b6e7c560d}; ! Name of Object 1

