
OS:Version,
  {1056472b-1a4e-4ab6-91ab-bde3db082e49}, ! Handle
  0.9.3;                                  ! Version Identifier

OS:SizingPeriod:DesignDay,
  {0a66198b-9238-4f1c-b38a-381a8dd95f3b}, ! Handle
  Minchumina Ann Clg 1% Condns Enth=>MDB, ! Name
  21.1,                                   ! Maximum Dry-Bulb Temperature {C}
  8.5,                                    ! Daily Dry-Bulb Temperature Range {deltaC}
  42800,                                  ! Humidity Indicating Conditions at Maximum Dry-Bulb {BasedOnField A3}
  98792,                                  ! Barometric Pressure {Pa}
  1.7,                                    ! Wind Speed {m/s}
  70,                                     ! Wind Direction {deg}
  0,                                      ! Sky Clearness
  0,                                      ! Rain Indicator
  0,                                      ! Snow Indicator
  21,                                     ! Day of Month
  7,                                      ! Month
  SummerDesignDay,                        ! Day Type
  0,                                      ! Daylight Saving Time Indicator
  Enthalpy,                               ! Humidity Indicating Type
  ,                                       ! Humidity Indicating Day Schedule Name
  DefaultMultipliers,                     ! Dry-Bulb Temperature Range Modifier Type
  ,                                       ! Dry-Bulb Temperature Range Modifier Schedule Name
  ASHRAETau,                              ! Solar Model Indicator
  ,                                       ! Beam Solar Day Schedule Name
  ,                                       ! Diffuse Solar Day Schedule Name
  0.376,                                  ! ASHRAE Taub {dimensionless}
  2.222;                                  ! ASHRAE Taud {dimensionless}

OS:ComponentData,
  {822aaf7d-c546-4aa1-aba8-aa97417499bb}, ! Handle
  Component Data 1,                       ! Name
  {1ec66dcf-4311-40f1-8e50-edecf27bd162}, ! UUID
  {d0d0d619-9f28-40b1-8c76-bdb67c781916}, ! Version UUID
  1366305437,                             ! Creation Timestamp
  1366305437,                             ! Version Timestamp
  {0a66198b-9238-4f1c-b38a-381a8dd95f3b}; ! Name of Object 1

