
OS:Version,
  {1587fd50-a4ac-4d01-b295-7c9b1e180eef}, ! Handle
  0.9.3;                                  ! Version Identifier

OS:SizingPeriod:DesignDay,
  {1f750b8c-7151-4dfc-b291-2aa45c2be770}, ! Handle
  ROANOKE Ann Clg .4% Condns DP=>MDB,     ! Name
  26.5,                                   ! Maximum Dry-Bulb Temperature {C}
  10.6,                                   ! Daily Dry-Bulb Temperature Range {deltaC}
  22.4,                                   ! Humidity Indicating Conditions at Maximum Dry-Bulb {BasedOnField A3}
  97098,                                  ! Barometric Pressure {Pa}
  4,                                      ! Wind Speed {m/s}
  280,                                    ! Wind Direction {deg}
  0,                                      ! Sky Clearness
  0,                                      ! Rain Indicator
  0,                                      ! Snow Indicator
  21,                                     ! Day of Month
  7,                                      ! Month
  SummerDesignDay,                        ! Day Type
  0,                                      ! Daylight Saving Time Indicator
  Dewpoint,                               ! Humidity Indicating Type
  ,                                       ! Humidity Indicating Day Schedule Name
  DefaultMultipliers,                     ! Dry-Bulb Temperature Range Modifier Type
  ,                                       ! Dry-Bulb Temperature Range Modifier Schedule Name
  ASHRAETau,                              ! Solar Model Indicator
  ,                                       ! Beam Solar Day Schedule Name
  ,                                       ! Diffuse Solar Day Schedule Name
  0.529,                                  ! ASHRAE Taub {dimensionless}
  1.818;                                  ! ASHRAE Taud {dimensionless}

OS:ComponentData,
  {83ec63dc-781f-4b25-bef4-3442ea4cb252}, ! Handle
  Component Data 1,                       ! Name
  {3638e169-d968-4901-a099-ae5c7e6df7bd}, ! UUID
  {c5d73d9a-0045-4b11-abe6-b5d8b51d88ab}, ! Version UUID
  1366311181,                             ! Creation Timestamp
  1366311181,                             ! Version Timestamp
  {1f750b8c-7151-4dfc-b291-2aa45c2be770}; ! Name of Object 1

