
OS:Version,
  {cef3001f-af20-413c-aa38-c96f8749e82c}, ! Handle
  0.9.3;                                  ! Version Identifier

OS:SizingPeriod:DesignDay,
  {0ba03520-ab41-4b4e-b298-92bd5cca66ad}, ! Handle
  Paso Robles Municipal Arpt Ann Clg 1% Condns Enth=>MDB, ! Name
  34.7,                                   ! Maximum Dry-Bulb Temperature {C}
  21,                                     ! Daily Dry-Bulb Temperature Range {deltaC}
  58200,                                  ! Humidity Indicating Conditions at Maximum Dry-Bulb {BasedOnField A3}
  98428,                                  ! Barometric Pressure {Pa}
  4.4,                                    ! Wind Speed {m/s}
  310,                                    ! Wind Direction {deg}
  0,                                      ! Sky Clearness
  0,                                      ! Rain Indicator
  0,                                      ! Snow Indicator
  21,                                     ! Day of Month
  7,                                      ! Month
  SummerDesignDay,                        ! Day Type
  0,                                      ! Daylight Saving Time Indicator
  Enthalpy,                               ! Humidity Indicating Type
  ,                                       ! Humidity Indicating Day Schedule Name
  DefaultMultipliers,                     ! Dry-Bulb Temperature Range Modifier Type
  ,                                       ! Dry-Bulb Temperature Range Modifier Schedule Name
  ASHRAETau,                              ! Solar Model Indicator
  ,                                       ! Beam Solar Day Schedule Name
  ,                                       ! Diffuse Solar Day Schedule Name
  0.381,                                  ! ASHRAE Taub {dimensionless}
  2.343;                                  ! ASHRAE Taud {dimensionless}

OS:ComponentData,
  {734bf218-1a00-4c7c-b274-3582f5f47450}, ! Handle
  Component Data 1,                       ! Name
  {c47f394d-3e70-4f37-a79b-ba57c0539974}, ! UUID
  {5390be59-e3c3-4d8d-9dfa-1666b1e8cbf4}, ! Version UUID
  1366306534,                             ! Creation Timestamp
  1366306534,                             ! Version Timestamp
  {0ba03520-ab41-4b4e-b298-92bd5cca66ad}; ! Name of Object 1

