
OS:Version,
  {6b224bb1-74fb-4e76-9a0d-4dcb0a3e83d0}, ! Handle
  0.9.3;                                  ! Version Identifier

OS:SizingPeriod:DesignDay,
  {0d3c5a10-fdf3-4f04-9a39-03dcd1d855cc}, ! Handle
  Monterey Naf Ann Clg 2% Condns DB=>MWB, ! Name
  21.3,                                   ! Maximum Dry-Bulb Temperature {C}
  7.7,                                    ! Daily Dry-Bulb Temperature Range {deltaC}
  15,                                     ! Humidity Indicating Conditions at Maximum Dry-Bulb {BasedOnField A3}
  100726,                                 ! Barometric Pressure {Pa}
  2.7,                                    ! Wind Speed {m/s}
  300,                                    ! Wind Direction {deg}
  0,                                      ! Sky Clearness
  0,                                      ! Rain Indicator
  0,                                      ! Snow Indicator
  21,                                     ! Day of Month
  9,                                      ! Month
  SummerDesignDay,                        ! Day Type
  0,                                      ! Daylight Saving Time Indicator
  Wetbulb,                                ! Humidity Indicating Type
  ,                                       ! Humidity Indicating Day Schedule Name
  DefaultMultipliers,                     ! Dry-Bulb Temperature Range Modifier Type
  ,                                       ! Dry-Bulb Temperature Range Modifier Schedule Name
  ASHRAETau,                              ! Solar Model Indicator
  ,                                       ! Beam Solar Day Schedule Name
  ,                                       ! Diffuse Solar Day Schedule Name
  0.348,                                  ! ASHRAE Taub {dimensionless}
  2.596;                                  ! ASHRAE Taud {dimensionless}

OS:ComponentData,
  {2c7e6ce9-21ee-466a-94b5-5395fb741aed}, ! Handle
  Component Data 1,                       ! Name
  {bd37c9f7-4ebf-46b2-81f7-8895a31bbff7}, ! UUID
  {af395b8c-7dc7-45af-997a-9618b1d031cb}, ! Version UUID
  1366306499,                             ! Creation Timestamp
  1366306499,                             ! Version Timestamp
  {0d3c5a10-fdf3-4f04-9a39-03dcd1d855cc}; ! Name of Object 1

