
OS:Version,
  {e07b0af2-bdfe-4da5-ab06-33d9f4f4c093}, ! Handle
  0.9.3;                                  ! Version Identifier

OS:SizingPeriod:DesignDay,
  {63876d9b-46f4-40fd-97a4-c365261a7e71}, ! Handle
  MASSENA Ann Clg 2% Condns DP=>MDB,      ! Name
  24.7,                                   ! Maximum Dry-Bulb Temperature {C}
  11.7,                                   ! Daily Dry-Bulb Temperature Range {deltaC}
  20.4,                                   ! Humidity Indicating Conditions at Maximum Dry-Bulb {BasedOnField A3}
  100570,                                 ! Barometric Pressure {Pa}
  4.7,                                    ! Wind Speed {m/s}
  240,                                    ! Wind Direction {deg}
  0,                                      ! Sky Clearness
  0,                                      ! Rain Indicator
  0,                                      ! Snow Indicator
  21,                                     ! Day of Month
  7,                                      ! Month
  SummerDesignDay,                        ! Day Type
  0,                                      ! Daylight Saving Time Indicator
  Dewpoint,                               ! Humidity Indicating Type
  ,                                       ! Humidity Indicating Day Schedule Name
  DefaultMultipliers,                     ! Dry-Bulb Temperature Range Modifier Type
  ,                                       ! Dry-Bulb Temperature Range Modifier Schedule Name
  ASHRAETau,                              ! Solar Model Indicator
  ,                                       ! Beam Solar Day Schedule Name
  ,                                       ! Diffuse Solar Day Schedule Name
  0.454,                                  ! ASHRAE Taub {dimensionless}
  2.024;                                  ! ASHRAE Taud {dimensionless}

OS:ComponentData,
  {ae470861-7fc4-4891-8496-b2ef146a8415}, ! Handle
  Component Data 1,                       ! Name
  {c2d6e0b7-ba8e-4c5f-a9a0-47a5a0c1d9b6}, ! UUID
  {019d885a-6557-49b0-aa3a-d03fdf5f127e}, ! Version UUID
  1366309646,                             ! Creation Timestamp
  1366309646,                             ! Version Timestamp
  {63876d9b-46f4-40fd-97a4-c365261a7e71}; ! Name of Object 1

