
OS:Version,
  {0694dc57-643f-4fe1-bbfb-36a0b468f974}, ! Handle
  0.9.3;                                  ! Version Identifier

OS:SizingPeriod:DesignDay,
  {6bbed6f1-e957-4c06-8c53-ec7a5dd6486e}, ! Handle
  MIDLAND Ann Hum_n 99% Condns DP=>MCDB,  ! Name
  4.3,                                    ! Maximum Dry-Bulb Temperature {C}
  0,                                      ! Daily Dry-Bulb Temperature Range {deltaC}
  -14.7,                                  ! Humidity Indicating Conditions at Maximum Dry-Bulb {BasedOnField A3}
  91290,                                  ! Barometric Pressure {Pa}
  4.1,                                    ! Wind Speed {m/s}
  40,                                     ! Wind Direction {deg}
  0,                                      ! Sky Clearness
  0,                                      ! Rain Indicator
  0,                                      ! Snow Indicator
  21,                                     ! Day of Month
  12,                                     ! Month
  WinterDesignDay,                        ! Day Type
  0,                                      ! Daylight Saving Time Indicator
  Dewpoint,                               ! Humidity Indicating Type
  ,                                       ! Humidity Indicating Day Schedule Name
  DefaultMultipliers,                     ! Dry-Bulb Temperature Range Modifier Type
  ,                                       ! Dry-Bulb Temperature Range Modifier Schedule Name
  ASHRAEClearSky;                         ! Solar Model Indicator

OS:ComponentData,
  {27f384d0-3831-4669-b66f-180144744395}, ! Handle
  Component Data 1,                       ! Name
  {6196d8f3-7e69-4ede-b42d-7dee8f7f7d72}, ! UUID
  {0890af4b-3d55-46d6-9228-893d33e3bfe4}, ! Version UUID
  1366310826,                             ! Creation Timestamp
  1366310826,                             ! Version Timestamp
  {6bbed6f1-e957-4c06-8c53-ec7a5dd6486e}; ! Name of Object 1

