
OS:Version,
  {331ecaf9-53f8-4267-8b5f-d92976551a69}, ! Handle
  0.9.3;                                  ! Version Identifier

OS:SizingPeriod:DesignDay,
  {8f58b657-fb80-4633-af9b-f2578bd2a8d3}, ! Handle
  Nome Municipal Arpt Ann Clg 1% Condns Enth=>MDB, ! Name
  17,                                     ! Maximum Dry-Bulb Temperature {C}
  5.9,                                    ! Daily Dry-Bulb Temperature Range {deltaC}
  38700,                                  ! Humidity Indicating Conditions at Maximum Dry-Bulb {BasedOnField A3}
  101277,                                 ! Barometric Pressure {Pa}
  4.8,                                    ! Wind Speed {m/s}
  260,                                    ! Wind Direction {deg}
  0,                                      ! Sky Clearness
  0,                                      ! Rain Indicator
  0,                                      ! Snow Indicator
  21,                                     ! Day of Month
  7,                                      ! Month
  SummerDesignDay,                        ! Day Type
  0,                                      ! Daylight Saving Time Indicator
  Enthalpy,                               ! Humidity Indicating Type
  ,                                       ! Humidity Indicating Day Schedule Name
  DefaultMultipliers,                     ! Dry-Bulb Temperature Range Modifier Type
  ,                                       ! Dry-Bulb Temperature Range Modifier Schedule Name
  ASHRAETau,                              ! Solar Model Indicator
  ,                                       ! Beam Solar Day Schedule Name
  ,                                       ! Diffuse Solar Day Schedule Name
  0.408,                                  ! ASHRAE Taub {dimensionless}
  2.08;                                   ! ASHRAE Taud {dimensionless}

OS:ComponentData,
  {a3806b23-e00a-4d10-a335-729ae43a42bc}, ! Handle
  Component Data 1,                       ! Name
  {6419b0f9-e23d-4d7d-88a2-5429f09d754e}, ! UUID
  {2b330d95-42c6-4378-b3c7-5aab8f5b8617}, ! Version UUID
  1366305465,                             ! Creation Timestamp
  1366305465,                             ! Version Timestamp
  {8f58b657-fb80-4633-af9b-f2578bd2a8d3}; ! Name of Object 1

