
OS:Version,
  {7d3dc390-ee99-4824-ae50-801f301b36ef}, ! Handle
  0.9.3;                                  ! Version Identifier

OS:SizingPeriod:DesignDay,
  {369f94fa-3f0a-4fad-8570-552eb7d7f27e}, ! Handle
  Whiteman Afb Ann Hum_n 99% Condns DP=>MCDB, ! Name
  -12.8,                                  ! Maximum Dry-Bulb Temperature {C}
  0,                                      ! Daily Dry-Bulb Temperature Range {deltaC}
  -18.5,                                  ! Humidity Indicating Conditions at Maximum Dry-Bulb {BasedOnField A3}
  98299,                                  ! Barometric Pressure {Pa}
  4.1,                                    ! Wind Speed {m/s}
  350,                                    ! Wind Direction {deg}
  0,                                      ! Sky Clearness
  0,                                      ! Rain Indicator
  0,                                      ! Snow Indicator
  21,                                     ! Day of Month
  1,                                      ! Month
  WinterDesignDay,                        ! Day Type
  0,                                      ! Daylight Saving Time Indicator
  Dewpoint,                               ! Humidity Indicating Type
  ,                                       ! Humidity Indicating Day Schedule Name
  DefaultMultipliers,                     ! Dry-Bulb Temperature Range Modifier Type
  ,                                       ! Dry-Bulb Temperature Range Modifier Schedule Name
  ASHRAEClearSky;                         ! Solar Model Indicator

OS:ComponentData,
  {30fe0bf7-e6b6-4cda-b88b-126f3ea575f8}, ! Handle
  Component Data 1,                       ! Name
  {80d15097-aae5-4d20-8bfd-1afec90cdc12}, ! UUID
  {7596f0a3-0bf5-4095-a486-7d0b59b5c005}, ! Version UUID
  1366308601,                             ! Creation Timestamp
  1366308601,                             ! Version Timestamp
  {369f94fa-3f0a-4fad-8570-552eb7d7f27e}; ! Name of Object 1

