
OS:Version,
  {f2bc543a-a4af-484e-b694-41c7cf972199}, ! Handle
  0.9.3;                                  ! Version Identifier

OS:SizingPeriod:DesignDay,
  {b2e6e3fc-e3c6-4f08-83bc-ea60d06a8942}, ! Handle
  OKLAHOMA_CITY Ann Clg .4% Condns Enth=>MDB, ! Name
  32.6,                                   ! Maximum Dry-Bulb Temperature {C}
  11.7,                                   ! Daily Dry-Bulb Temperature Range {deltaC}
  80000,                                  ! Humidity Indicating Conditions at Maximum Dry-Bulb {BasedOnField A3}
  96646,                                  ! Barometric Pressure {Pa}
  5.5,                                    ! Wind Speed {m/s}
  170,                                    ! Wind Direction {deg}
  0,                                      ! Sky Clearness
  0,                                      ! Rain Indicator
  0,                                      ! Snow Indicator
  21,                                     ! Day of Month
  7,                                      ! Month
  SummerDesignDay,                        ! Day Type
  0,                                      ! Daylight Saving Time Indicator
  Enthalpy,                               ! Humidity Indicating Type
  ,                                       ! Humidity Indicating Day Schedule Name
  DefaultMultipliers,                     ! Dry-Bulb Temperature Range Modifier Type
  ,                                       ! Dry-Bulb Temperature Range Modifier Schedule Name
  ASHRAETau,                              ! Solar Model Indicator
  ,                                       ! Beam Solar Day Schedule Name
  ,                                       ! Diffuse Solar Day Schedule Name
  0.426,                                  ! ASHRAE Taub {dimensionless}
  2.214;                                  ! ASHRAE Taud {dimensionless}

OS:ComponentData,
  {83cfd6a7-b6ae-458f-b8af-f1d28e785af5}, ! Handle
  Component Data 1,                       ! Name
  {101f43ad-c81e-4815-83cf-91a910b42faf}, ! UUID
  {6a8ae63b-75a8-4bdc-9005-8011db335e74}, ! Version UUID
  1366309932,                             ! Creation Timestamp
  1366309932,                             ! Version Timestamp
  {b2e6e3fc-e3c6-4f08-83bc-ea60d06a8942}; ! Name of Object 1

