
OS:Version,
  {2921468f-4330-47c9-9c94-daa3a689cf45}, ! Handle
  0.9.3;                                  ! Version Identifier

OS:SizingPeriod:DesignDay,
  {f3d12d5d-3d5e-4305-ab60-116cdb3dc035}, ! Handle
  SHREVEPORT Ann Clg .4% Condns DB=>MWB,  ! Name
  36.6,                                   ! Maximum Dry-Bulb Temperature {C}
  10.7,                                   ! Daily Dry-Bulb Temperature Range {deltaC}
  24.6,                                   ! Humidity Indicating Conditions at Maximum Dry-Bulb {BasedOnField A3}
  100380,                                 ! Barometric Pressure {Pa}
  3.3,                                    ! Wind Speed {m/s}
  180,                                    ! Wind Direction {deg}
  0,                                      ! Sky Clearness
  0,                                      ! Rain Indicator
  0,                                      ! Snow Indicator
  21,                                     ! Day of Month
  7,                                      ! Month
  SummerDesignDay,                        ! Day Type
  0,                                      ! Daylight Saving Time Indicator
  Wetbulb,                                ! Humidity Indicating Type
  ,                                       ! Humidity Indicating Day Schedule Name
  DefaultMultipliers,                     ! Dry-Bulb Temperature Range Modifier Type
  ,                                       ! Dry-Bulb Temperature Range Modifier Schedule Name
  ASHRAETau,                              ! Solar Model Indicator
  ,                                       ! Beam Solar Day Schedule Name
  ,                                       ! Diffuse Solar Day Schedule Name
  0.489,                                  ! ASHRAE Taub {dimensionless}
  2.014;                                  ! ASHRAE Taud {dimensionless}

OS:ComponentData,
  {9c926729-f908-4e0f-903d-3874c3729397}, ! Handle
  Component Data 1,                       ! Name
  {ffad364c-8d4c-4b20-92c2-6a29933e233c}, ! UUID
  {7c2a4e46-6e29-4f5f-8c41-faf496f30afb}, ! Version UUID
  1366307762,                             ! Creation Timestamp
  1366307762,                             ! Version Timestamp
  {f3d12d5d-3d5e-4305-ab60-116cdb3dc035}; ! Name of Object 1

