
OS:Version,
  {6d286c0c-a173-42ee-a894-3b246630393c}, ! Handle
  0.9.3;                                  ! Version Identifier

OS:SizingPeriod:DesignDay,
  {e927377e-2eb5-420b-9eed-9575a9627d47}, ! Handle
  MIAMI Ann Htg Wind 99% Condns WS=>MCDB, ! Name
  21.7,                                   ! Maximum Dry-Bulb Temperature {C}
  0,                                      ! Daily Dry-Bulb Temperature Range {deltaC}
  21.7,                                   ! Humidity Indicating Conditions at Maximum Dry-Bulb {BasedOnField A3}
  101301,                                 ! Barometric Pressure {Pa}
  9.3,                                    ! Wind Speed {m/s}
  340,                                    ! Wind Direction {deg}
  0,                                      ! Sky Clearness
  0,                                      ! Rain Indicator
  0,                                      ! Snow Indicator
  21,                                     ! Day of Month
  1,                                      ! Month
  WinterDesignDay,                        ! Day Type
  0,                                      ! Daylight Saving Time Indicator
  Wetbulb,                                ! Humidity Indicating Type
  ,                                       ! Humidity Indicating Day Schedule Name
  DefaultMultipliers,                     ! Dry-Bulb Temperature Range Modifier Type
  ,                                       ! Dry-Bulb Temperature Range Modifier Schedule Name
  ASHRAEClearSky;                         ! Solar Model Indicator

OS:ComponentData,
  {5a869587-932a-497b-a489-61ed4af4c4cd}, ! Handle
  Component Data 1,                       ! Name
  {369cd1ec-37d3-4720-9a7a-a2c3e59732cd}, ! UUID
  {3d7487e9-af9c-42eb-93d3-e0b9a4b4cc49}, ! Version UUID
  1366306860,                             ! Creation Timestamp
  1366306860,                             ! Version Timestamp
  {e927377e-2eb5-420b-9eed-9575a9627d47}; ! Name of Object 1

