
OS:Version,
  {095517bf-744e-40c1-bb84-b9053ec77c49}, ! Handle
  0.9.3;                                  ! Version Identifier

OS:SizingPeriod:DesignDay,
  {423ea029-e61c-4309-8407-58f67acff815}, ! Handle
  San Diego Lindbergh Field Ann Clg 1% Condns DP=>MDB, ! Name
  24.2,                                   ! Maximum Dry-Bulb Temperature {C}
  4.9,                                    ! Daily Dry-Bulb Temperature Range {deltaC}
  20.5,                                   ! Humidity Indicating Conditions at Maximum Dry-Bulb {BasedOnField A3}
  101277,                                 ! Barometric Pressure {Pa}
  4.6,                                    ! Wind Speed {m/s}
  300,                                    ! Wind Direction {deg}
  0,                                      ! Sky Clearness
  0,                                      ! Rain Indicator
  0,                                      ! Snow Indicator
  21,                                     ! Day of Month
  8,                                      ! Month
  SummerDesignDay,                        ! Day Type
  0,                                      ! Daylight Saving Time Indicator
  Dewpoint,                               ! Humidity Indicating Type
  ,                                       ! Humidity Indicating Day Schedule Name
  DefaultMultipliers,                     ! Dry-Bulb Temperature Range Modifier Type
  ,                                       ! Dry-Bulb Temperature Range Modifier Schedule Name
  ASHRAETau,                              ! Solar Model Indicator
  ,                                       ! Beam Solar Day Schedule Name
  ,                                       ! Diffuse Solar Day Schedule Name
  0.426,                                  ! ASHRAE Taub {dimensionless}
  2.214;                                  ! ASHRAE Taud {dimensionless}

