
OS:Version,
  {93a8fc5b-11ff-4671-8d41-8615fc721932}, ! Handle
  0.9.3;                                  ! Version Identifier

OS:SizingPeriod:DesignDay,
  {7fe8a397-9602-4c04-b1b0-52ad8bab5505}, ! Handle
  Warner Robins Afb Ann Clg .4% Condns Enth=>MDB, ! Name
  32.5,                                   ! Maximum Dry-Bulb Temperature {C}
  11,                                     ! Daily Dry-Bulb Temperature Range {deltaC}
  82800,                                  ! Humidity Indicating Conditions at Maximum Dry-Bulb {BasedOnField A3}
  100225,                                 ! Barometric Pressure {Pa}
  3.2,                                    ! Wind Speed {m/s}
  320,                                    ! Wind Direction {deg}
  0,                                      ! Sky Clearness
  0,                                      ! Rain Indicator
  0,                                      ! Snow Indicator
  21,                                     ! Day of Month
  7,                                      ! Month
  SummerDesignDay,                        ! Day Type
  0,                                      ! Daylight Saving Time Indicator
  Enthalpy,                               ! Humidity Indicating Type
  ,                                       ! Humidity Indicating Day Schedule Name
  DefaultMultipliers,                     ! Dry-Bulb Temperature Range Modifier Type
  ,                                       ! Dry-Bulb Temperature Range Modifier Schedule Name
  ASHRAETau,                              ! Solar Model Indicator
  ,                                       ! Beam Solar Day Schedule Name
  ,                                       ! Diffuse Solar Day Schedule Name
  0.55,                                   ! ASHRAE Taub {dimensionless}
  1.811;                                  ! ASHRAE Taud {dimensionless}

OS:ComponentData,
  {bf951b1e-8eb7-4038-a1bb-032ae5503734}, ! Handle
  Component Data 1,                       ! Name
  {735d7825-4b88-4884-998a-732739b3838e}, ! UUID
  {2a2b236f-86d5-4a71-b01b-f10f30b8960d}, ! Version UUID
  1366307067,                             ! Creation Timestamp
  1366307067,                             ! Version Timestamp
  {7fe8a397-9602-4c04-b1b0-52ad8bab5505}; ! Name of Object 1

