
OS:Version,
  {174d2cba-a2d4-4990-b0a3-263188809ce5}, ! Handle
  0.9.3;                                  ! Version Identifier

OS:SizingPeriod:DesignDay,
  {c2bd3f33-070e-49e5-86cf-f9321ee1ea4c}, ! Handle
  Mount Vernon  Awos Ann Clg 2% Condns Enth=>MDB, ! Name
  30.3,                                   ! Maximum Dry-Bulb Temperature {C}
  11,                                     ! Daily Dry-Bulb Temperature Range {deltaC}
  76400,                                  ! Humidity Indicating Conditions at Maximum Dry-Bulb {BasedOnField A3}
  99583,                                  ! Barometric Pressure {Pa}
  3.9,                                    ! Wind Speed {m/s}
  200,                                    ! Wind Direction {deg}
  0,                                      ! Sky Clearness
  0,                                      ! Rain Indicator
  0,                                      ! Snow Indicator
  21,                                     ! Day of Month
  7,                                      ! Month
  SummerDesignDay,                        ! Day Type
  0,                                      ! Daylight Saving Time Indicator
  Enthalpy,                               ! Humidity Indicating Type
  ,                                       ! Humidity Indicating Day Schedule Name
  DefaultMultipliers,                     ! Dry-Bulb Temperature Range Modifier Type
  ,                                       ! Dry-Bulb Temperature Range Modifier Schedule Name
  ASHRAETau,                              ! Solar Model Indicator
  ,                                       ! Beam Solar Day Schedule Name
  ,                                       ! Diffuse Solar Day Schedule Name
  0.484,                                  ! ASHRAE Taub {dimensionless}
  1.959;                                  ! ASHRAE Taud {dimensionless}

OS:ComponentData,
  {c593ebe5-eccc-493f-be00-e8175ac9f1b0}, ! Handle
  Component Data 1,                       ! Name
  {5640e9b6-c628-420e-8109-94389a265a39}, ! UUID
  {42e51308-c4ab-47f9-a019-881f236d6095}, ! Version UUID
  1366307377,                             ! Creation Timestamp
  1366307377,                             ! Version Timestamp
  {c2bd3f33-070e-49e5-86cf-f9321ee1ea4c}; ! Name of Object 1

