
OS:Version,
  {46b0cef4-1580-4103-be26-86d518c9c2f2}, ! Handle
  0.9.3;                                  ! Version Identifier

OS:SizingPeriod:DesignDay,
  {bc723412-c026-4660-825c-50c5723364e6}, ! Handle
  Whidbey Island Nas Ann Htg Wind 99.6% Condns WS=>MCDB, ! Name
  7.8,                                    ! Maximum Dry-Bulb Temperature {C}
  0,                                      ! Daily Dry-Bulb Temperature Range {deltaC}
  7.8,                                    ! Humidity Indicating Conditions at Maximum Dry-Bulb {BasedOnField A3}
  101205,                                 ! Barometric Pressure {Pa}
  15.8,                                   ! Wind Speed {m/s}
  120,                                    ! Wind Direction {deg}
  0,                                      ! Sky Clearness
  0,                                      ! Rain Indicator
  0,                                      ! Snow Indicator
  21,                                     ! Day of Month
  12,                                     ! Month
  WinterDesignDay,                        ! Day Type
  0,                                      ! Daylight Saving Time Indicator
  Wetbulb,                                ! Humidity Indicating Type
  ,                                       ! Humidity Indicating Day Schedule Name
  DefaultMultipliers,                     ! Dry-Bulb Temperature Range Modifier Type
  ,                                       ! Dry-Bulb Temperature Range Modifier Schedule Name
  ASHRAEClearSky;                         ! Solar Model Indicator

OS:ComponentData,
  {bb09965f-bc94-4f62-85fb-387896f0b545}, ! Handle
  Component Data 1,                       ! Name
  {289bef72-2f57-4b4e-af1d-4f7476439a84}, ! UUID
  {b231a6d6-4438-49fd-a021-4dcb7212ef06}, ! Version UUID
  1366311435,                             ! Creation Timestamp
  1366311435,                             ! Version Timestamp
  {bc723412-c026-4660-825c-50c5723364e6}; ! Name of Object 1

