
OS:Version,
  {ae4afac2-86f8-46aa-87b4-8c9c53883405}, ! Handle
  0.9.3;                                  ! Version Identifier

OS:SizingPeriod:DesignDay,
  {07ef688a-20a7-4011-93d6-378c7e117178}, ! Handle
  Watertown Municipal Ap Ann Htg Wind 99.6% Condns WS=>MCDB, ! Name
  -10.7,                                  ! Maximum Dry-Bulb Temperature {C}
  0,                                      ! Daily Dry-Bulb Temperature Range {deltaC}
  -10.7,                                  ! Humidity Indicating Conditions at Maximum Dry-Bulb {BasedOnField A3}
  95095,                                  ! Barometric Pressure {Pa}
  14.3,                                   ! Wind Speed {m/s}
  320,                                    ! Wind Direction {deg}
  0,                                      ! Sky Clearness
  0,                                      ! Rain Indicator
  0,                                      ! Snow Indicator
  21,                                     ! Day of Month
  1,                                      ! Month
  WinterDesignDay,                        ! Day Type
  0,                                      ! Daylight Saving Time Indicator
  Wetbulb,                                ! Humidity Indicating Type
  ,                                       ! Humidity Indicating Day Schedule Name
  DefaultMultipliers,                     ! Dry-Bulb Temperature Range Modifier Type
  ,                                       ! Dry-Bulb Temperature Range Modifier Schedule Name
  ASHRAEClearSky;                         ! Solar Model Indicator

OS:ComponentData,
  {05492919-9cb6-47ed-a4d9-bacc40bb19f4}, ! Handle
  Component Data 1,                       ! Name
  {14736c21-6fb3-4d8d-a7fb-b48349009a3e}, ! UUID
  {b1c052b2-a0af-4c73-ab53-eb58a45323f4}, ! Version UUID
  1366310467,                             ! Creation Timestamp
  1366310467,                             ! Version Timestamp
  {07ef688a-20a7-4011-93d6-378c7e117178}; ! Name of Object 1

