
OS:Version,
  {ff48ec86-abd9-492c-bd0b-709ac19cb517}, ! Handle
  0.9.3;                                  ! Version Identifier

OS:SizingPeriod:DesignDay,
  {acd44bdb-a797-40e4-9e97-5e28f42f46a0}, ! Handle
  PENDLETON Ann Htg Wind 99.6% Condns WS=>MCDB, ! Name
  7.6,                                    ! Maximum Dry-Bulb Temperature {C}
  0,                                      ! Daily Dry-Bulb Temperature Range {deltaC}
  7.6,                                    ! Humidity Indicating Conditions at Maximum Dry-Bulb {BasedOnField A3}
  95966,                                  ! Barometric Pressure {Pa}
  14.5,                                   ! Wind Speed {m/s}
  140,                                    ! Wind Direction {deg}
  0,                                      ! Sky Clearness
  0,                                      ! Rain Indicator
  0,                                      ! Snow Indicator
  21,                                     ! Day of Month
  12,                                     ! Month
  WinterDesignDay,                        ! Day Type
  0,                                      ! Daylight Saving Time Indicator
  Wetbulb,                                ! Humidity Indicating Type
  ,                                       ! Humidity Indicating Day Schedule Name
  DefaultMultipliers,                     ! Dry-Bulb Temperature Range Modifier Type
  ,                                       ! Dry-Bulb Temperature Range Modifier Schedule Name
  ASHRAEClearSky;                         ! Solar Model Indicator

OS:ComponentData,
  {9add384f-5cfd-4467-9bdc-a54375561830}, ! Handle
  Component Data 1,                       ! Name
  {6f522487-91c9-43da-8f29-bdc7a92faf2c}, ! UUID
  {39e1c5fa-2c96-4245-b1a6-e3d01b469dc5}, ! Version UUID
  1366310062,                             ! Creation Timestamp
  1366310062,                             ! Version Timestamp
  {acd44bdb-a797-40e4-9e97-5e28f42f46a0}; ! Name of Object 1

