
OS:Version,
  {29f97bbe-e9c2-4cc9-a6f7-fee0fe40db52}, ! Handle
  0.9.3;                                  ! Version Identifier

OS:SizingPeriod:DesignDay,
  {3d7df138-b452-49fa-a514-45e6e16135ed}, ! Handle
  Southwest Florida I Ann Clg 2% Condns WB=>MDB, ! Name
  30.4,                                   ! Maximum Dry-Bulb Temperature {C}
  9.1,                                    ! Daily Dry-Bulb Temperature Range {deltaC}
  26.2,                                   ! Humidity Indicating Conditions at Maximum Dry-Bulb {BasedOnField A3}
  101217,                                 ! Barometric Pressure {Pa}
  3.7,                                    ! Wind Speed {m/s}
  100,                                    ! Wind Direction {deg}
  0,                                      ! Sky Clearness
  0,                                      ! Rain Indicator
  0,                                      ! Snow Indicator
  21,                                     ! Day of Month
  8,                                      ! Month
  SummerDesignDay,                        ! Day Type
  0,                                      ! Daylight Saving Time Indicator
  Wetbulb,                                ! Humidity Indicating Type
  ,                                       ! Humidity Indicating Day Schedule Name
  DefaultMultipliers,                     ! Dry-Bulb Temperature Range Modifier Type
  ,                                       ! Dry-Bulb Temperature Range Modifier Schedule Name
  ASHRAETau,                              ! Solar Model Indicator
  ,                                       ! Beam Solar Day Schedule Name
  ,                                       ! Diffuse Solar Day Schedule Name
  0.491,                                  ! ASHRAE Taub {dimensionless}
  2.021;                                  ! ASHRAE Taud {dimensionless}

OS:ComponentData,
  {6fb4e824-1405-4822-9935-f3e7fb532aae}, ! Handle
  Component Data 1,                       ! Name
  {b4dd9caf-0cef-4fdf-8c7e-d3abce4a83fa}, ! UUID
  {63406012-e9c7-4006-a8eb-6425627dbcad}, ! Version UUID
  1366306912,                             ! Creation Timestamp
  1366306912,                             ! Version Timestamp
  {3d7df138-b452-49fa-a514-45e6e16135ed}; ! Name of Object 1

