
OS:Version,
  {3cdd160b-5582-4e03-afe7-0e9c4775e6fe}, ! Handle
  0.9.3;                                  ! Version Identifier

OS:SizingPeriod:DesignDay,
  {5374d052-1891-4fee-aade-168627a9a631}, ! Handle
  Nenana Municipal Ap Ann Clg .4% Condns DB=>MWB, ! Name
  26.8,                                   ! Maximum Dry-Bulb Temperature {C}
  11.3,                                   ! Daily Dry-Bulb Temperature Range {deltaC}
  16.2,                                   ! Humidity Indicating Conditions at Maximum Dry-Bulb {BasedOnField A3}
  100022,                                 ! Barometric Pressure {Pa}
  2.6,                                    ! Wind Speed {m/s}
  60,                                     ! Wind Direction {deg}
  0,                                      ! Sky Clearness
  0,                                      ! Rain Indicator
  0,                                      ! Snow Indicator
  21,                                     ! Day of Month
  7,                                      ! Month
  SummerDesignDay,                        ! Day Type
  0,                                      ! Daylight Saving Time Indicator
  Wetbulb,                                ! Humidity Indicating Type
  ,                                       ! Humidity Indicating Day Schedule Name
  DefaultMultipliers,                     ! Dry-Bulb Temperature Range Modifier Type
  ,                                       ! Dry-Bulb Temperature Range Modifier Schedule Name
  ASHRAETau,                              ! Solar Model Indicator
  ,                                       ! Beam Solar Day Schedule Name
  ,                                       ! Diffuse Solar Day Schedule Name
  0.38,                                   ! ASHRAE Taub {dimensionless}
  2.23;                                   ! ASHRAE Taud {dimensionless}

OS:ComponentData,
  {3faa4d66-a307-4041-a077-24b357729daf}, ! Handle
  Component Data 1,                       ! Name
  {d575c31d-7d83-4dd7-bb78-67a5b89083cf}, ! UUID
  {cbf47bdd-4c65-4c00-95aa-6464fe2a1dc0}, ! Version UUID
  1366305440,                             ! Creation Timestamp
  1366305440,                             ! Version Timestamp
  {5374d052-1891-4fee-aade-168627a9a631}; ! Name of Object 1

