
OS:Version,
  {ffc90883-d4ca-410a-b165-f4c4d1e1bf2d}, ! Handle
  0.9.3;                                  ! Version Identifier

OS:SizingPeriod:DesignDay,
  {f994ca85-2859-4517-88e3-46c4537d1046}, ! Handle
  Winnemucca Ann Htg Wind 99.6% Condns WS=>MCDB, ! Name
  7.3,                                    ! Maximum Dry-Bulb Temperature {C}
  0,                                      ! Daily Dry-Bulb Temperature Range {deltaC}
  7.3,                                    ! Humidity Indicating Conditions at Maximum Dry-Bulb {BasedOnField A3}
  86493,                                  ! Barometric Pressure {Pa}
  11.8,                                   ! Wind Speed {m/s}
  160,                                    ! Wind Direction {deg}
  0,                                      ! Sky Clearness
  0,                                      ! Rain Indicator
  0,                                      ! Snow Indicator
  21,                                     ! Day of Month
  12,                                     ! Month
  WinterDesignDay,                        ! Day Type
  0,                                      ! Daylight Saving Time Indicator
  Wetbulb,                                ! Humidity Indicating Type
  ,                                       ! Humidity Indicating Day Schedule Name
  DefaultMultipliers,                     ! Dry-Bulb Temperature Range Modifier Type
  ,                                       ! Dry-Bulb Temperature Range Modifier Schedule Name
  ASHRAEClearSky;                         ! Solar Model Indicator

OS:ComponentData,
  {0244ed2d-cfe1-4560-91f4-8ee57fd15318}, ! Handle
  Component Data 1,                       ! Name
  {45ff3f6c-71fa-4e06-aa5b-305a34a12693}, ! UUID
  {8d06752a-bf1c-4d18-8d9d-db7d2c590bff}, ! Version UUID
  1366309563,                             ! Creation Timestamp
  1366309563,                             ! Version Timestamp
  {f994ca85-2859-4517-88e3-46c4537d1046}; ! Name of Object 1

