
OS:Version,
  {1cbfecea-ab17-4c66-b0ea-8df7caefd7aa}, ! Handle
  0.9.3;                                  ! Version Identifier

OS:SizingPeriod:DesignDay,
  {d83c832d-7396-4883-8479-c136dd7637d0}, ! Handle
  PORTLAND Ann Clg 1% Condns DB=>MWB,     ! Name
  30.6,                                   ! Maximum Dry-Bulb Temperature {C}
  12.2,                                   ! Daily Dry-Bulb Temperature Range {deltaC}
  19.2,                                   ! Humidity Indicating Conditions at Maximum Dry-Bulb {BasedOnField A3}
  101181,                                 ! Barometric Pressure {Pa}
  4.7,                                    ! Wind Speed {m/s}
  310,                                    ! Wind Direction {deg}
  0,                                      ! Sky Clearness
  0,                                      ! Rain Indicator
  0,                                      ! Snow Indicator
  21,                                     ! Day of Month
  8,                                      ! Month
  SummerDesignDay,                        ! Day Type
  0,                                      ! Daylight Saving Time Indicator
  Wetbulb,                                ! Humidity Indicating Type
  ,                                       ! Humidity Indicating Day Schedule Name
  DefaultMultipliers,                     ! Dry-Bulb Temperature Range Modifier Type
  ,                                       ! Dry-Bulb Temperature Range Modifier Schedule Name
  ASHRAETau,                              ! Solar Model Indicator
  ,                                       ! Beam Solar Day Schedule Name
  ,                                       ! Diffuse Solar Day Schedule Name
  0.358,                                  ! ASHRAE Taub {dimensionless}
  2.549;                                  ! ASHRAE Taud {dimensionless}

OS:ComponentData,
  {f5eb81ea-9d79-4e7e-b8d0-4126d3fbd336}, ! Handle
  Component Data 1,                       ! Name
  {7919d15a-f7e5-440f-8f55-26413e4cb895}, ! UUID
  {7d26674a-90b0-4df2-992b-448522d5df85}, ! Version UUID
  1366310073,                             ! Creation Timestamp
  1366310073,                             ! Version Timestamp
  {d83c832d-7396-4883-8479-c136dd7637d0}; ! Name of Object 1

