
OS:Version,
  {f451f417-7098-49fc-90f5-d24a673ffe22}, ! Handle
  0.9.3;                                  ! Version Identifier

OS:SizingPeriod:DesignDay,
  {cf87f6be-ff44-4c7f-9f08-5e015c0a6c5d}, ! Handle
  Raleigh/Durham Ann Htg 99.6% Condns DB, ! Name
  -7.4,                                   ! Maximum Dry-Bulb Temperature {C}
  0,                                      ! Daily Dry-Bulb Temperature Range {deltaC}
  -7.4,                                   ! Humidity Indicating Conditions at Maximum Dry-Bulb {BasedOnField A3}
  99726,                                  ! Barometric Pressure {Pa}
  2.8,                                    ! Wind Speed {m/s}
  30,                                     ! Wind Direction {deg}
  0,                                      ! Sky Clearness
  0,                                      ! Rain Indicator
  0,                                      ! Snow Indicator
  21,                                     ! Day of Month
  1,                                      ! Month
  WinterDesignDay,                        ! Day Type
  0,                                      ! Daylight Saving Time Indicator
  Wetbulb,                                ! Humidity Indicating Type
  ,                                       ! Humidity Indicating Day Schedule Name
  DefaultMultipliers,                     ! Dry-Bulb Temperature Range Modifier Type
  ,                                       ! Dry-Bulb Temperature Range Modifier Schedule Name
  ASHRAEClearSky;                         ! Solar Model Indicator

OS:ComponentData,
  {4a067e65-4ce8-4ab5-b895-675493b8281d}, ! Handle
  Component Data 1,                       ! Name
  {b616b0a5-4360-4cc6-ad61-de82f74f3183}, ! UUID
  {83e87da8-9ec8-4a11-979b-c8f1e38848b4}, ! Version UUID
  1366308968,                             ! Creation Timestamp
  1366308968,                             ! Version Timestamp
  {cf87f6be-ff44-4c7f-9f08-5e015c0a6c5d}; ! Name of Object 1

