
OS:Version,
  {59f84ec8-be4c-47be-a67c-b94a384a469c}, ! Handle
  0.9.3;                                  ! Version Identifier

OS:SizingPeriod:DesignDay,
  {61887c94-790a-495a-b6b5-369c2430d41f}, ! Handle
  Napa Co  Airport Ann Clg 1% Condns DB=>MWB, ! Name
  30.3,                                   ! Maximum Dry-Bulb Temperature {C}
  13,                                     ! Daily Dry-Bulb Temperature Range {deltaC}
  18.5,                                   ! Humidity Indicating Conditions at Maximum Dry-Bulb {BasedOnField A3}
  101205,                                 ! Barometric Pressure {Pa}
  4.5,                                    ! Wind Speed {m/s}
  210,                                    ! Wind Direction {deg}
  0,                                      ! Sky Clearness
  0,                                      ! Rain Indicator
  0,                                      ! Snow Indicator
  21,                                     ! Day of Month
  7,                                      ! Month
  SummerDesignDay,                        ! Day Type
  0,                                      ! Daylight Saving Time Indicator
  Wetbulb,                                ! Humidity Indicating Type
  ,                                       ! Humidity Indicating Day Schedule Name
  DefaultMultipliers,                     ! Dry-Bulb Temperature Range Modifier Type
  ,                                       ! Dry-Bulb Temperature Range Modifier Schedule Name
  ASHRAETau,                              ! Solar Model Indicator
  ,                                       ! Beam Solar Day Schedule Name
  ,                                       ! Diffuse Solar Day Schedule Name
  0.367,                                  ! ASHRAE Taub {dimensionless}
  2.436;                                  ! ASHRAE Taud {dimensionless}

