
OS:Version,
  {d528154f-cd17-4e42-8226-3b3858fb49c1}, ! Handle
  0.9.3;                                  ! Version Identifier

OS:SizingPeriod:DesignDay,
  {c139635d-2c26-41b0-bcd7-a9b9eb5b5718}, ! Handle
  Olathe Johnson Co Ann Clg 1% Condns DB=>MWB, ! Name
  33.6,                                   ! Maximum Dry-Bulb Temperature {C}
  10.1,                                   ! Daily Dry-Bulb Temperature Range {deltaC}
  24.4,                                   ! Humidity Indicating Conditions at Maximum Dry-Bulb {BasedOnField A3}
  97376,                                  ! Barometric Pressure {Pa}
  4.7,                                    ! Wind Speed {m/s}
  210,                                    ! Wind Direction {deg}
  0,                                      ! Sky Clearness
  0,                                      ! Rain Indicator
  0,                                      ! Snow Indicator
  21,                                     ! Day of Month
  7,                                      ! Month
  SummerDesignDay,                        ! Day Type
  0,                                      ! Daylight Saving Time Indicator
  Wetbulb,                                ! Humidity Indicating Type
  ,                                       ! Humidity Indicating Day Schedule Name
  DefaultMultipliers,                     ! Dry-Bulb Temperature Range Modifier Type
  ,                                       ! Dry-Bulb Temperature Range Modifier Schedule Name
  ASHRAETau,                              ! Solar Model Indicator
  ,                                       ! Beam Solar Day Schedule Name
  ,                                       ! Diffuse Solar Day Schedule Name
  0.436,                                  ! ASHRAE Taub {dimensionless}
  2.149;                                  ! ASHRAE Taud {dimensionless}

OS:ComponentData,
  {b6261b02-e396-4e5a-87bc-f90bf84131cc}, ! Handle
  Component Data 1,                       ! Name
  {bdf1f440-49fd-40b2-81db-30f50903bf97}, ! UUID
  {91b0dd09-e062-4690-a2c8-78bde52dd8a7}, ! Version UUID
  1366307567,                             ! Creation Timestamp
  1366307567,                             ! Version Timestamp
  {c139635d-2c26-41b0-bcd7-a9b9eb5b5718}; ! Name of Object 1

