
OS:Version,
  {8ae68cc9-c09d-4855-8744-e81b66b604b2}, ! Handle
  0.9.3;                                  ! Version Identifier

OS:SizingPeriod:DesignDay,
  {5c6b083b-9d76-4563-ad86-e39d4973462f}, ! Handle
  Santa Maria Public Arpt Ann Clg 2% Condns DP=>MDB, ! Name
  19.5,                                   ! Maximum Dry-Bulb Temperature {C}
  10.2,                                   ! Daily Dry-Bulb Temperature Range {deltaC}
  15,                                     ! Humidity Indicating Conditions at Maximum Dry-Bulb {BasedOnField A3}
  100403,                                 ! Barometric Pressure {Pa}
  4.6,                                    ! Wind Speed {m/s}
  300,                                    ! Wind Direction {deg}
  0,                                      ! Sky Clearness
  0,                                      ! Rain Indicator
  0,                                      ! Snow Indicator
  21,                                     ! Day of Month
  8,                                      ! Month
  SummerDesignDay,                        ! Day Type
  0,                                      ! Daylight Saving Time Indicator
  Dewpoint,                               ! Humidity Indicating Type
  ,                                       ! Humidity Indicating Day Schedule Name
  DefaultMultipliers,                     ! Dry-Bulb Temperature Range Modifier Type
  ,                                       ! Dry-Bulb Temperature Range Modifier Schedule Name
  ASHRAETau,                              ! Solar Model Indicator
  ,                                       ! Beam Solar Day Schedule Name
  ,                                       ! Diffuse Solar Day Schedule Name
  0.371,                                  ! ASHRAE Taub {dimensionless}
  2.414;                                  ! ASHRAE Taud {dimensionless}

OS:ComponentData,
  {e604fb86-50fe-4f39-a77f-057c7bd7f25b}, ! Handle
  Component Data 1,                       ! Name
  {bd722ba0-720d-4c33-a492-bf4e5f7fbf09}, ! UUID
  {651d1678-0110-4d20-ab6b-5aa500ce222d}, ! Version UUID
  1366306616,                             ! Creation Timestamp
  1366306616,                             ! Version Timestamp
  {5c6b083b-9d76-4563-ad86-e39d4973462f}; ! Name of Object 1

