
OS:Version,
  {d8625af5-7415-4569-a702-63f7169b0222}, ! Handle
  0.9.3;                                  ! Version Identifier

OS:SizingPeriod:DesignDay,
  {fa10c226-b986-492a-ac6e-c5ebd5318678}, ! Handle
  Marietta Dobbins Afb Ann Clg 1% Condns DP=>MDB, ! Name
  26.6,                                   ! Maximum Dry-Bulb Temperature {C}
  9.6,                                    ! Daily Dry-Bulb Temperature Range {deltaC}
  22.8,                                   ! Humidity Indicating Conditions at Maximum Dry-Bulb {BasedOnField A3}
  97423,                                  ! Barometric Pressure {Pa}
  2.7,                                    ! Wind Speed {m/s}
  300,                                    ! Wind Direction {deg}
  0,                                      ! Sky Clearness
  0,                                      ! Rain Indicator
  0,                                      ! Snow Indicator
  21,                                     ! Day of Month
  7,                                      ! Month
  SummerDesignDay,                        ! Day Type
  0,                                      ! Daylight Saving Time Indicator
  Dewpoint,                               ! Humidity Indicating Type
  ,                                       ! Humidity Indicating Day Schedule Name
  DefaultMultipliers,                     ! Dry-Bulb Temperature Range Modifier Type
  ,                                       ! Dry-Bulb Temperature Range Modifier Schedule Name
  ASHRAETau,                              ! Solar Model Indicator
  ,                                       ! Beam Solar Day Schedule Name
  ,                                       ! Diffuse Solar Day Schedule Name
  0.558,                                  ! ASHRAE Taub {dimensionless}
  1.77;                                   ! ASHRAE Taud {dimensionless}

OS:ComponentData,
  {b28386b5-2850-436e-9d64-2604817b8491}, ! Handle
  Component Data 1,                       ! Name
  {b65abb78-c291-4548-afc6-f4769fc742af}, ! UUID
  {f42f5129-518e-4747-9134-f777ad9e922d}, ! Version UUID
  1366307032,                             ! Creation Timestamp
  1366307032,                             ! Version Timestamp
  {fa10c226-b986-492a-ac6e-c5ebd5318678}; ! Name of Object 1

