
OS:Version,
  {9a09d681-d767-42d8-8c7c-8e2ae16b8be5}, ! Handle
  0.9.3;                                  ! Version Identifier

OS:SizingPeriod:DesignDay,
  {4d0a446f-e3f9-4fdc-8a77-437b34161938}, ! Handle
  Point Hope  Awos Ann Htg Wind 99% Condns WS=>MCDB, ! Name
  -18.9,                                  ! Maximum Dry-Bulb Temperature {C}
  0,                                      ! Daily Dry-Bulb Temperature Range {deltaC}
  -18.9,                                  ! Humidity Indicating Conditions at Maximum Dry-Bulb {BasedOnField A3}
  101277,                                 ! Barometric Pressure {Pa}
  20.2,                                   ! Wind Speed {m/s}
  320,                                    ! Wind Direction {deg}
  0,                                      ! Sky Clearness
  0,                                      ! Rain Indicator
  0,                                      ! Snow Indicator
  21,                                     ! Day of Month
  1,                                      ! Month
  WinterDesignDay,                        ! Day Type
  0,                                      ! Daylight Saving Time Indicator
  Wetbulb,                                ! Humidity Indicating Type
  ,                                       ! Humidity Indicating Day Schedule Name
  DefaultMultipliers,                     ! Dry-Bulb Temperature Range Modifier Type
  ,                                       ! Dry-Bulb Temperature Range Modifier Schedule Name
  ASHRAEClearSky;                         ! Solar Model Indicator

OS:ComponentData,
  {e3738cb0-3385-4818-8fef-b7aa14a20bb0}, ! Handle
  Component Data 1,                       ! Name
  {b151a276-8e61-4c6d-b8fa-66e8be29409d}, ! UUID
  {7e0b5ce6-5be7-4911-9a9b-d08b582c6696}, ! Version UUID
  1366305490,                             ! Creation Timestamp
  1366305490,                             ! Version Timestamp
  {4d0a446f-e3f9-4fdc-8a77-437b34161938}; ! Name of Object 1

