
OS:Version,
  {d050eca4-84fe-4324-927b-ab7e70778aa3}, ! Handle
  0.9.3;                                  ! Version Identifier

OS:SizingPeriod:DesignDay,
  {cf33495b-b651-44e6-a099-81a7d57680dd}, ! Handle
  Oakland Co Intl Ann Htg Wind 99% Condns WS=>MCDB, ! Name
  -3.1,                                   ! Maximum Dry-Bulb Temperature {C}
  0,                                      ! Daily Dry-Bulb Temperature Range {deltaC}
  -3.1,                                   ! Humidity Indicating Conditions at Maximum Dry-Bulb {BasedOnField A3}
  97703,                                  ! Barometric Pressure {Pa}
  11.2,                                   ! Wind Speed {m/s}
  300,                                    ! Wind Direction {deg}
  0,                                      ! Sky Clearness
  0,                                      ! Rain Indicator
  0,                                      ! Snow Indicator
  21,                                     ! Day of Month
  1,                                      ! Month
  WinterDesignDay,                        ! Day Type
  0,                                      ! Daylight Saving Time Indicator
  Wetbulb,                                ! Humidity Indicating Type
  ,                                       ! Humidity Indicating Day Schedule Name
  DefaultMultipliers,                     ! Dry-Bulb Temperature Range Modifier Type
  ,                                       ! Dry-Bulb Temperature Range Modifier Schedule Name
  ASHRAEClearSky;                         ! Solar Model Indicator

OS:ComponentData,
  {002fbdfb-370e-4c40-a5da-58263aa71f2a}, ! Handle
  Component Data 1,                       ! Name
  {c2afc12b-885a-4cd8-8864-7c3849d0aee6}, ! UUID
  {f40fb25d-858a-4e5f-8b6c-9a4dd63e9aa3}, ! Version UUID
  1366308079,                             ! Creation Timestamp
  1366308079,                             ! Version Timestamp
  {cf33495b-b651-44e6-a099-81a7d57680dd}; ! Name of Object 1

