
OS:Version,
  {592d2572-039f-4434-88be-00ab1b3d5118}, ! Handle
  0.9.3;                                  ! Version Identifier

OS:SizingPeriod:DesignDay,
  {c0540739-6e1b-43f9-925c-f4897adea00e}, ! Handle
  Salinas Municipal Ap Ann Htg Wind 99.6% Condns WS=>MCDB, ! Name
  12.7,                                   ! Maximum Dry-Bulb Temperature {C}
  0,                                      ! Daily Dry-Bulb Temperature Range {deltaC}
  12.7,                                   ! Humidity Indicating Conditions at Maximum Dry-Bulb {BasedOnField A3}
  101073,                                 ! Barometric Pressure {Pa}
  12.6,                                   ! Wind Speed {m/s}
  120,                                    ! Wind Direction {deg}
  0,                                      ! Sky Clearness
  0,                                      ! Rain Indicator
  0,                                      ! Snow Indicator
  21,                                     ! Day of Month
  12,                                     ! Month
  WinterDesignDay,                        ! Day Type
  0,                                      ! Daylight Saving Time Indicator
  Wetbulb,                                ! Humidity Indicating Type
  ,                                       ! Humidity Indicating Day Schedule Name
  DefaultMultipliers,                     ! Dry-Bulb Temperature Range Modifier Type
  ,                                       ! Dry-Bulb Temperature Range Modifier Schedule Name
  ASHRAEClearSky;                         ! Solar Model Indicator

OS:ComponentData,
  {b1727b8d-a336-420c-98f3-86599eb139d3}, ! Handle
  Component Data 1,                       ! Name
  {edfb05c1-2e97-4e59-af1d-d9104ff2fdd3}, ! UUID
  {176d2661-bc19-49f9-b23f-b6f75c5b7271}, ! Version UUID
  1366306570,                             ! Creation Timestamp
  1366306570,                             ! Version Timestamp
  {c0540739-6e1b-43f9-925c-f4897adea00e}; ! Name of Object 1

