
OS:Version,
  {41e40430-35b2-4037-b114-67b7dabf3c4e}, ! Handle
  0.9.3;                                  ! Version Identifier

OS:SizingPeriod:DesignDay,
  {089b4edd-d60c-40f0-9ab5-c4bba9e4d2f6}, ! Handle
  Whittier Ann Clg .4% Condns Enth=>MDB,  ! Name
  20.3,                                   ! Maximum Dry-Bulb Temperature {C}
  5.4,                                    ! Daily Dry-Bulb Temperature Range {deltaC}
  44200,                                  ! Humidity Indicating Conditions at Maximum Dry-Bulb {BasedOnField A3}
  101217,                                 ! Barometric Pressure {Pa}
  4.9,                                    ! Wind Speed {m/s}
  210,                                    ! Wind Direction {deg}
  0,                                      ! Sky Clearness
  0,                                      ! Rain Indicator
  0,                                      ! Snow Indicator
  21,                                     ! Day of Month
  7,                                      ! Month
  SummerDesignDay,                        ! Day Type
  0,                                      ! Daylight Saving Time Indicator
  Enthalpy,                               ! Humidity Indicating Type
  ,                                       ! Humidity Indicating Day Schedule Name
  DefaultMultipliers,                     ! Dry-Bulb Temperature Range Modifier Type
  ,                                       ! Dry-Bulb Temperature Range Modifier Schedule Name
  ASHRAETau,                              ! Solar Model Indicator
  ,                                       ! Beam Solar Day Schedule Name
  ,                                       ! Diffuse Solar Day Schedule Name
  0.407,                                  ! ASHRAE Taub {dimensionless}
  2.048;                                  ! ASHRAE Taud {dimensionless}

OS:ComponentData,
  {87e1ad9f-7900-45c2-b93e-0831ad6c0fdb}, ! Handle
  Component Data 1,                       ! Name
  {98b36caf-9408-49d8-ac33-5469c0e6ef52}, ! UUID
  {835c7b02-7069-4ed6-a8b0-513b14f909ad}, ! Version UUID
  1366305614,                             ! Creation Timestamp
  1366305614,                             ! Version Timestamp
  {089b4edd-d60c-40f0-9ab5-c4bba9e4d2f6}; ! Name of Object 1

