
OS:Version,
  {16b5aca9-26f7-4d52-b41b-5070a7abdc64}, ! Handle
  0.9.3;                                  ! Version Identifier

OS:SizingPeriod:DesignDay,
  {3f2e1197-4811-4dae-a1fc-6b9a8875bbf4}, ! Handle
  Worchester Regional Arpt Ann Clg 1% Condns WB=>MDB, ! Name
  26.4,                                   ! Maximum Dry-Bulb Temperature {C}
  9,                                      ! Daily Dry-Bulb Temperature Range {deltaC}
  22.5,                                   ! Humidity Indicating Conditions at Maximum Dry-Bulb {BasedOnField A3}
  97773,                                  ! Barometric Pressure {Pa}
  4.6,                                    ! Wind Speed {m/s}
  270,                                    ! Wind Direction {deg}
  0,                                      ! Sky Clearness
  0,                                      ! Rain Indicator
  0,                                      ! Snow Indicator
  21,                                     ! Day of Month
  7,                                      ! Month
  SummerDesignDay,                        ! Day Type
  0,                                      ! Daylight Saving Time Indicator
  Wetbulb,                                ! Humidity Indicating Type
  ,                                       ! Humidity Indicating Day Schedule Name
  DefaultMultipliers,                     ! Dry-Bulb Temperature Range Modifier Type
  ,                                       ! Dry-Bulb Temperature Range Modifier Schedule Name
  ASHRAETau,                              ! Solar Model Indicator
  ,                                       ! Beam Solar Day Schedule Name
  ,                                       ! Diffuse Solar Day Schedule Name
  0.454,                                  ! ASHRAE Taub {dimensionless}
  2.026;                                  ! ASHRAE Taud {dimensionless}

OS:ComponentData,
  {fd1baa51-c3f5-49bb-839a-a0ca3b9a7902}, ! Handle
  Component Data 1,                       ! Name
  {99703d18-15a6-43c5-86b7-4a29f503ed3a}, ! UUID
  {e0a47d84-a64a-4f9a-b21c-e230cb9618c9}, ! Version UUID
  1366307831,                             ! Creation Timestamp
  1366307831,                             ! Version Timestamp
  {3f2e1197-4811-4dae-a1fc-6b9a8875bbf4}; ! Name of Object 1

