
OS:Version,
  {e93ef54e-3fa2-4e0b-89e1-3e8777943811}, ! Handle
  0.9.3;                                  ! Version Identifier

OS:SizingPeriod:DesignDay,
  {bb7f09ff-1a5b-4b58-8e9c-ca8cf9359cef}, ! Handle
  Salem Mcnary Field Ann Clg .4% Condns DP=>MDB, ! Name
  23.3,                                   ! Maximum Dry-Bulb Temperature {C}
  15.4,                                   ! Daily Dry-Bulb Temperature Range {deltaC}
  16.4,                                   ! Humidity Indicating Conditions at Maximum Dry-Bulb {BasedOnField A3}
  100606,                                 ! Barometric Pressure {Pa}
  4.3,                                    ! Wind Speed {m/s}
  0,                                      ! Wind Direction {deg}
  0,                                      ! Sky Clearness
  0,                                      ! Rain Indicator
  0,                                      ! Snow Indicator
  21,                                     ! Day of Month
  8,                                      ! Month
  SummerDesignDay,                        ! Day Type
  0,                                      ! Daylight Saving Time Indicator
  Dewpoint,                               ! Humidity Indicating Type
  ,                                       ! Humidity Indicating Day Schedule Name
  DefaultMultipliers,                     ! Dry-Bulb Temperature Range Modifier Type
  ,                                       ! Dry-Bulb Temperature Range Modifier Schedule Name
  ASHRAETau,                              ! Solar Model Indicator
  ,                                       ! Beam Solar Day Schedule Name
  ,                                       ! Diffuse Solar Day Schedule Name
  0.355,                                  ! ASHRAE Taub {dimensionless}
  2.578;                                  ! ASHRAE Taud {dimensionless}

OS:ComponentData,
  {adfd22ab-a763-459c-b1a1-5ee751e10608}, ! Handle
  Component Data 1,                       ! Name
  {ca2b13dd-31ca-4bc9-a15e-b0467728d9d3}, ! UUID
  {555de029-b866-467a-a5b7-f9d9d29702f8}, ! Version UUID
  1366310114,                             ! Creation Timestamp
  1366310114,                             ! Version Timestamp
  {bb7f09ff-1a5b-4b58-8e9c-ca8cf9359cef}; ! Name of Object 1

