
OS:Version,
  {d96b617b-3890-4b43-a8f1-30e9a47be754}, ! Handle
  0.9.3;                                  ! Version Identifier

OS:SizingPeriod:DesignDay,
  {0e731c4b-2b06-4b99-aeb8-942488d187ad}, ! Handle
  North Platte Regional Ap Ann Htg 99% Condns DB, ! Name
  -18.2,                                  ! Maximum Dry-Bulb Temperature {C}
  0,                                      ! Daily Dry-Bulb Temperature Range {deltaC}
  -18.2,                                  ! Humidity Indicating Conditions at Maximum Dry-Bulb {BasedOnField A3}
  91555,                                  ! Barometric Pressure {Pa}
  3.6,                                    ! Wind Speed {m/s}
  320,                                    ! Wind Direction {deg}
  0,                                      ! Sky Clearness
  0,                                      ! Rain Indicator
  0,                                      ! Snow Indicator
  21,                                     ! Day of Month
  1,                                      ! Month
  WinterDesignDay,                        ! Day Type
  0,                                      ! Daylight Saving Time Indicator
  Wetbulb,                                ! Humidity Indicating Type
  ,                                       ! Humidity Indicating Day Schedule Name
  DefaultMultipliers,                     ! Dry-Bulb Temperature Range Modifier Type
  ,                                       ! Dry-Bulb Temperature Range Modifier Schedule Name
  ASHRAEClearSky;                         ! Solar Model Indicator

OS:ComponentData,
  {0ca82ed1-a487-49cd-9fe8-58b9cc57d58c}, ! Handle
  Component Data 1,                       ! Name
  {8015c7c2-437b-40eb-b8d4-c6bd0dcb5c75}, ! UUID
  {ce6222d9-6239-4462-8ea6-b419f6a5daa2}, ! Version UUID
  1366309164,                             ! Creation Timestamp
  1366309164,                             ! Version Timestamp
  {0e731c4b-2b06-4b99-aeb8-942488d187ad}; ! Name of Object 1

