
OS:Version,
  {d2d9b43d-5985-4084-8111-9f817390808f}, ! Handle
  0.9.3;                                  ! Version Identifier

OS:SizingPeriod:DesignDay,
  {cfc81f91-8631-4620-9b6a-c16325c1d65e}, ! Handle
  RAPID_CITY Ann Htg 99% Condns DB,       ! Name
  -20.3,                                  ! Maximum Dry-Bulb Temperature {C}
  0,                                      ! Daily Dry-Bulb Temperature Range {deltaC}
  -20.3,                                  ! Humidity Indicating Conditions at Maximum Dry-Bulb {BasedOnField A3}
  90246,                                  ! Barometric Pressure {Pa}
  3.6,                                    ! Wind Speed {m/s}
  0,                                      ! Wind Direction {deg}
  0,                                      ! Sky Clearness
  0,                                      ! Rain Indicator
  0,                                      ! Snow Indicator
  21,                                     ! Day of Month
  1,                                      ! Month
  WinterDesignDay,                        ! Day Type
  0,                                      ! Daylight Saving Time Indicator
  Wetbulb,                                ! Humidity Indicating Type
  ,                                       ! Humidity Indicating Day Schedule Name
  DefaultMultipliers,                     ! Dry-Bulb Temperature Range Modifier Type
  ,                                       ! Dry-Bulb Temperature Range Modifier Schedule Name
  ASHRAEClearSky;                         ! Solar Model Indicator

OS:ComponentData,
  {ff1bea15-1ba6-4a8a-a9cb-3bfaaa05a384}, ! Handle
  Component Data 1,                       ! Name
  {348df00d-a1c7-4d94-b39b-add2188b34ec}, ! UUID
  {5ee3c3ac-83ca-4168-9893-b08035d9a0a5}, ! Version UUID
  1366310439,                             ! Creation Timestamp
  1366310439,                             ! Version Timestamp
  {cfc81f91-8631-4620-9b6a-c16325c1d65e}; ! Name of Object 1

