
OS:Version,
  {96b7ed30-c6db-4610-aac5-9f58ddfb4cb8}, ! Handle
  0.9.3;                                  ! Version Identifier

OS:SizingPeriod:DesignDay,
  {5ed7104f-ca52-498d-bca8-6f9d96faeb62}, ! Handle
  Tacoma Mcchord Afb Ann Clg 2% Condns DB=>MWB, ! Name
  26.1,                                   ! Maximum Dry-Bulb Temperature {C}
  12.8,                                   ! Daily Dry-Bulb Temperature Range {deltaC}
  16.8,                                   ! Humidity Indicating Conditions at Maximum Dry-Bulb {BasedOnField A3}
  100272,                                 ! Barometric Pressure {Pa}
  3.3,                                    ! Wind Speed {m/s}
  20,                                     ! Wind Direction {deg}
  0,                                      ! Sky Clearness
  0,                                      ! Rain Indicator
  0,                                      ! Snow Indicator
  21,                                     ! Day of Month
  8,                                      ! Month
  SummerDesignDay,                        ! Day Type
  0,                                      ! Daylight Saving Time Indicator
  Wetbulb,                                ! Humidity Indicating Type
  ,                                       ! Humidity Indicating Day Schedule Name
  DefaultMultipliers,                     ! Dry-Bulb Temperature Range Modifier Type
  ,                                       ! Dry-Bulb Temperature Range Modifier Schedule Name
  ASHRAETau,                              ! Solar Model Indicator
  ,                                       ! Beam Solar Day Schedule Name
  ,                                       ! Diffuse Solar Day Schedule Name
  0.353,                                  ! ASHRAE Taub {dimensionless}
  2.565;                                  ! ASHRAE Taud {dimensionless}

OS:ComponentData,
  {f55ab978-f442-49b9-94d2-994f975f93da}, ! Handle
  Component Data 1,                       ! Name
  {5514ea71-7cd6-43b8-a78e-c3c1213d867b}, ! UUID
  {17dd7fb7-b557-4cca-8da1-4d5e01597032}, ! Version UUID
  1366311406,                             ! Creation Timestamp
  1366311406,                             ! Version Timestamp
  {5ed7104f-ca52-498d-bca8-6f9d96faeb62}; ! Name of Object 1

