
OS:Version,
  {4a295867-b6f7-401a-9d97-44cea82a1986}, ! Handle
  0.9.3;                                  ! Version Identifier

OS:SizingPeriod:DesignDay,
  {3fb8f391-2e1a-4e76-aa5a-6123a337f0c7}, ! Handle
  Newark International Arpt Ann Htg 99% Condns DB, ! Name
  -9.1,                                   ! Maximum Dry-Bulb Temperature {C}
  0,                                      ! Daily Dry-Bulb Temperature Range {deltaC}
  -9.1,                                   ! Humidity Indicating Conditions at Maximum Dry-Bulb {BasedOnField A3}
  101289,                                 ! Barometric Pressure {Pa}
  6.2,                                    ! Wind Speed {m/s}
  320,                                    ! Wind Direction {deg}
  0,                                      ! Sky Clearness
  0,                                      ! Rain Indicator
  0,                                      ! Snow Indicator
  21,                                     ! Day of Month
  1,                                      ! Month
  WinterDesignDay,                        ! Day Type
  0,                                      ! Daylight Saving Time Indicator
  Wetbulb,                                ! Humidity Indicating Type
  ,                                       ! Humidity Indicating Day Schedule Name
  DefaultMultipliers,                     ! Dry-Bulb Temperature Range Modifier Type
  ,                                       ! Dry-Bulb Temperature Range Modifier Schedule Name
  ASHRAEClearSky;                         ! Solar Model Indicator

OS:ComponentData,
  {98bae7ce-22af-4999-8e0d-3e9384d3491f}, ! Handle
  Component Data 1,                       ! Name
  {9a6b6435-6c38-4255-871d-316709fc54e4}, ! UUID
  {85b7d03a-0927-4c83-ab7b-7f06f5efd041}, ! Version UUID
  1366309337,                             ! Creation Timestamp
  1366309337,                             ! Version Timestamp
  {3fb8f391-2e1a-4e76-aa5a-6123a337f0c7}; ! Name of Object 1

