
OS:Version,
  {1636d374-d6cd-4797-9ad1-9e73db7b2174}, ! Handle
  0.9.3;                                  ! Version Identifier

OS:SizingPeriod:DesignDay,
  {30d9aec0-5a4b-4c57-9286-311f9b92b318}, ! Handle
  New Orleans Lakefront Ap Ann Hum_n 99% Condns DP=>MCDB, ! Name
  5.7,                                    ! Maximum Dry-Bulb Temperature {C}
  0,                                      ! Daily Dry-Bulb Temperature Range {deltaC}
  -4.6,                                   ! Humidity Indicating Conditions at Maximum Dry-Bulb {BasedOnField A3}
  101289,                                 ! Barometric Pressure {Pa}
  6.5,                                    ! Wind Speed {m/s}
  0,                                      ! Wind Direction {deg}
  0,                                      ! Sky Clearness
  0,                                      ! Rain Indicator
  0,                                      ! Snow Indicator
  21,                                     ! Day of Month
  1,                                      ! Month
  WinterDesignDay,                        ! Day Type
  0,                                      ! Daylight Saving Time Indicator
  Dewpoint,                               ! Humidity Indicating Type
  ,                                       ! Humidity Indicating Day Schedule Name
  DefaultMultipliers,                     ! Dry-Bulb Temperature Range Modifier Type
  ,                                       ! Dry-Bulb Temperature Range Modifier Schedule Name
  ASHRAEClearSky;                         ! Solar Model Indicator

OS:ComponentData,
  {e005beec-0d09-4c58-b78a-51acdda95edc}, ! Handle
  Component Data 1,                       ! Name
  {ec34281b-2015-4433-a673-6eb45767767e}, ! UUID
  {9e2ac9ba-7b3c-43ca-beac-f48157ef7581}, ! Version UUID
  1366307743,                             ! Creation Timestamp
  1366307743,                             ! Version Timestamp
  {30d9aec0-5a4b-4c57-9286-311f9b92b318}; ! Name of Object 1

