
OS:Version,
  {8ff5043f-4c0f-4917-80a0-c615cb5f4281}, ! Handle
  0.9.3;                                  ! Version Identifier

OS:SizingPeriod:DesignDay,
  {d93a0cee-6cb5-4247-8bdf-55af7de9b31c}, ! Handle
  Sanford Muni  Awos Ann Clg 1% Condns DB=>MWB, ! Name
  29.1,                                   ! Maximum Dry-Bulb Temperature {C}
  12.6,                                   ! Daily Dry-Bulb Temperature Range {deltaC}
  20.4,                                   ! Humidity Indicating Conditions at Maximum Dry-Bulb {BasedOnField A3}
  100439,                                 ! Barometric Pressure {Pa}
  3.9,                                    ! Wind Speed {m/s}
  230,                                    ! Wind Direction {deg}
  0,                                      ! Sky Clearness
  0,                                      ! Rain Indicator
  0,                                      ! Snow Indicator
  21,                                     ! Day of Month
  7,                                      ! Month
  SummerDesignDay,                        ! Day Type
  0,                                      ! Daylight Saving Time Indicator
  Wetbulb,                                ! Humidity Indicating Type
  ,                                       ! Humidity Indicating Day Schedule Name
  DefaultMultipliers,                     ! Dry-Bulb Temperature Range Modifier Type
  ,                                       ! Dry-Bulb Temperature Range Modifier Schedule Name
  ASHRAETau,                              ! Solar Model Indicator
  ,                                       ! Beam Solar Day Schedule Name
  ,                                       ! Diffuse Solar Day Schedule Name
  0.471,                                  ! ASHRAE Taub {dimensionless}
  1.98;                                   ! ASHRAE Taud {dimensionless}

OS:ComponentData,
  {0c30728a-9a23-4c65-acd0-5cabc3754141}, ! Handle
  Component Data 1,                       ! Name
  {06cc48e1-290e-4d69-9374-57a8acc4761c}, ! UUID
  {96636f2b-70e8-4089-b282-33f4370b0a44}, ! Version UUID
  1366307926,                             ! Creation Timestamp
  1366307926,                             ! Version Timestamp
  {d93a0cee-6cb5-4247-8bdf-55af7de9b31c}; ! Name of Object 1

