
OS:Version,
  {ceb846fb-1d8b-4e0b-a23e-314fc7800e73}, ! Handle
  0.9.3;                                  ! Version Identifier

OS:SizingPeriod:DesignDay,
  {bea4db6e-7e2f-4e10-b0d1-547ade8bb58f}, ! Handle
  Point Mugu Nf Ann Clg 1% Condns Enth=>MDB, ! Name
  23.7,                                   ! Maximum Dry-Bulb Temperature {C}
  7.8,                                    ! Daily Dry-Bulb Temperature Range {deltaC}
  58300,                                  ! Humidity Indicating Conditions at Maximum Dry-Bulb {BasedOnField A3}
  101289,                                 ! Barometric Pressure {Pa}
  5.2,                                    ! Wind Speed {m/s}
  50,                                     ! Wind Direction {deg}
  0,                                      ! Sky Clearness
  0,                                      ! Rain Indicator
  0,                                      ! Snow Indicator
  21,                                     ! Day of Month
  8,                                      ! Month
  SummerDesignDay,                        ! Day Type
  0,                                      ! Daylight Saving Time Indicator
  Enthalpy,                               ! Humidity Indicating Type
  ,                                       ! Humidity Indicating Day Schedule Name
  DefaultMultipliers,                     ! Dry-Bulb Temperature Range Modifier Type
  ,                                       ! Dry-Bulb Temperature Range Modifier Schedule Name
  ASHRAETau,                              ! Solar Model Indicator
  ,                                       ! Beam Solar Day Schedule Name
  ,                                       ! Diffuse Solar Day Schedule Name
  0.425,                                  ! ASHRAE Taub {dimensionless}
  2.2;                                    ! ASHRAE Taud {dimensionless}

OS:ComponentData,
  {cf8a9dbe-44e3-45ef-b221-2e779c28ad42}, ! Handle
  Component Data 1,                       ! Name
  {12513571-629c-4b92-a3ce-f498d98f9fb8}, ! UUID
  {f78fe3ee-d900-4ef4-a56f-fe3606f45d9e}, ! Version UUID
  1366306539,                             ! Creation Timestamp
  1366306539,                             ! Version Timestamp
  {bea4db6e-7e2f-4e10-b0d1-547ade8bb58f}; ! Name of Object 1

