
OS:Version,
  {9eefb795-0860-45c5-9cf7-5b386c0f56d4}, ! Handle
  0.9.3;                                  ! Version Identifier

OS:SizingPeriod:DesignDay,
  {398f9d1b-4797-46ee-ab2e-dbd5a1c61c72}, ! Handle
  Marshall Ryan Awos Ann Clg 1% Condns DB=>MWB, ! Name
  30.9,                                   ! Maximum Dry-Bulb Temperature {C}
  10.2,                                   ! Daily Dry-Bulb Temperature Range {deltaC}
  22.1,                                   ! Humidity Indicating Conditions at Maximum Dry-Bulb {BasedOnField A3}
  97086,                                  ! Barometric Pressure {Pa}
  7.2,                                    ! Wind Speed {m/s}
  200,                                    ! Wind Direction {deg}
  0,                                      ! Sky Clearness
  0,                                      ! Rain Indicator
  0,                                      ! Snow Indicator
  21,                                     ! Day of Month
  7,                                      ! Month
  SummerDesignDay,                        ! Day Type
  0,                                      ! Daylight Saving Time Indicator
  Wetbulb,                                ! Humidity Indicating Type
  ,                                       ! Humidity Indicating Day Schedule Name
  DefaultMultipliers,                     ! Dry-Bulb Temperature Range Modifier Type
  ,                                       ! Dry-Bulb Temperature Range Modifier Schedule Name
  ASHRAETau,                              ! Solar Model Indicator
  ,                                       ! Beam Solar Day Schedule Name
  ,                                       ! Diffuse Solar Day Schedule Name
  0.398,                                  ! ASHRAE Taub {dimensionless}
  2.26;                                   ! ASHRAE Taud {dimensionless}

OS:ComponentData,
  {694960c8-1f04-4d5d-9c21-694d37ed316e}, ! Handle
  Component Data 1,                       ! Name
  {bd8ba305-4830-4956-9929-5eb3b4fcb02a}, ! UUID
  {7e8ae9d5-b1de-4601-9217-735cafd49b89}, ! Version UUID
  1366308299,                             ! Creation Timestamp
  1366308299,                             ! Version Timestamp
  {398f9d1b-4797-46ee-ab2e-dbd5a1c61c72}; ! Name of Object 1

