
OS:Version,
  {89dbf518-1045-4916-8a3c-cc2378174a25}, ! Handle
  0.9.3;                                  ! Version Identifier

OS:SizingPeriod:DesignDay,
  {9766d527-cca0-4cc8-8800-984cc503678e}, ! Handle
  Wendover Usaf Auxiliary Field Ann Clg 2% Condns DP=>MDB, ! Name
  22.2,                                   ! Maximum Dry-Bulb Temperature {C}
  12.6,                                   ! Daily Dry-Bulb Temperature Range {deltaC}
  11.6,                                   ! Humidity Indicating Conditions at Maximum Dry-Bulb {BasedOnField A3}
  86747,                                  ! Barometric Pressure {Pa}
  5.1,                                    ! Wind Speed {m/s}
  120,                                    ! Wind Direction {deg}
  0,                                      ! Sky Clearness
  0,                                      ! Rain Indicator
  0,                                      ! Snow Indicator
  21,                                     ! Day of Month
  7,                                      ! Month
  SummerDesignDay,                        ! Day Type
  0,                                      ! Daylight Saving Time Indicator
  Dewpoint,                               ! Humidity Indicating Type
  ,                                       ! Humidity Indicating Day Schedule Name
  DefaultMultipliers,                     ! Dry-Bulb Temperature Range Modifier Type
  ,                                       ! Dry-Bulb Temperature Range Modifier Schedule Name
  ASHRAETau,                              ! Solar Model Indicator
  ,                                       ! Beam Solar Day Schedule Name
  ,                                       ! Diffuse Solar Day Schedule Name
  0.474,                                  ! ASHRAE Taub {dimensionless}
  1.796;                                  ! ASHRAE Taud {dimensionless}

OS:ComponentData,
  {86769580-c414-49f2-9b50-6fbcf5dbc7aa}, ! Handle
  Component Data 1,                       ! Name
  {3e8e4684-d4a6-436d-98eb-a308b837855a}, ! UUID
  {a611a5fd-1e96-4bbb-86f0-7b8b0e0496e5}, ! Version UUID
  1366311010,                             ! Creation Timestamp
  1366311010,                             ! Version Timestamp
  {9766d527-cca0-4cc8-8800-984cc503678e}; ! Name of Object 1

