
OS:Version,
  {6d0c31b7-cb3b-4a33-b934-15ac018fb9fe}, ! Handle
  0.9.3;                                  ! Version Identifier

OS:SizingPeriod:DesignDay,
  {9c26fbbe-4e4f-4fb0-ac8c-c88095967c57}, ! Handle
  Victoria Regional Ap Ann Clg .4% Condns DP=>MDB, ! Name
  27.9,                                   ! Maximum Dry-Bulb Temperature {C}
  10.6,                                   ! Daily Dry-Bulb Temperature Range {deltaC}
  25.8,                                   ! Humidity Indicating Conditions at Maximum Dry-Bulb {BasedOnField A3}
  100905,                                 ! Barometric Pressure {Pa}
  4.9,                                    ! Wind Speed {m/s}
  170,                                    ! Wind Direction {deg}
  0,                                      ! Sky Clearness
  0,                                      ! Rain Indicator
  0,                                      ! Snow Indicator
  21,                                     ! Day of Month
  8,                                      ! Month
  SummerDesignDay,                        ! Day Type
  0,                                      ! Daylight Saving Time Indicator
  Dewpoint,                               ! Humidity Indicating Type
  ,                                       ! Humidity Indicating Day Schedule Name
  DefaultMultipliers,                     ! Dry-Bulb Temperature Range Modifier Type
  ,                                       ! Dry-Bulb Temperature Range Modifier Schedule Name
  ASHRAETau,                              ! Solar Model Indicator
  ,                                       ! Beam Solar Day Schedule Name
  ,                                       ! Diffuse Solar Day Schedule Name
  0.474,                                  ! ASHRAE Taub {dimensionless}
  2.062;                                  ! ASHRAE Taud {dimensionless}

OS:ComponentData,
  {1b92410b-6d4c-4504-b5ed-afa80b6b75d6}, ! Handle
  Component Data 1,                       ! Name
  {5ce45b0b-b82d-4aa3-9a14-4b1cde8ffc40}, ! UUID
  {ed717b37-d3b3-4233-8fba-4e16436c49b9}, ! Version UUID
  1366310913,                             ! Creation Timestamp
  1366310913,                             ! Version Timestamp
  {9c26fbbe-4e4f-4fb0-ac8c-c88095967c57}; ! Name of Object 1

