
OS:Version,
  {114ef9c8-f79f-4d2d-ae33-c1ac5ed9d002}, ! Handle
  0.9.3;                                  ! Version Identifier

OS:SizingPeriod:DesignDay,
  {904563d9-de5c-4f27-9d41-ffcfa35bc55d}, ! Handle
  MIDLAND Ann Clg 1% Condns DP=>MDB,      ! Name
  24.5,                                   ! Maximum Dry-Bulb Temperature {C}
  13.1,                                   ! Daily Dry-Bulb Temperature Range {deltaC}
  20.3,                                   ! Humidity Indicating Conditions at Maximum Dry-Bulb {BasedOnField A3}
  91290,                                  ! Barometric Pressure {Pa}
  5.7,                                    ! Wind Speed {m/s}
  150,                                    ! Wind Direction {deg}
  0,                                      ! Sky Clearness
  0,                                      ! Rain Indicator
  0,                                      ! Snow Indicator
  21,                                     ! Day of Month
  7,                                      ! Month
  SummerDesignDay,                        ! Day Type
  0,                                      ! Daylight Saving Time Indicator
  Dewpoint,                               ! Humidity Indicating Type
  ,                                       ! Humidity Indicating Day Schedule Name
  DefaultMultipliers,                     ! Dry-Bulb Temperature Range Modifier Type
  ,                                       ! Dry-Bulb Temperature Range Modifier Schedule Name
  ASHRAETau,                              ! Solar Model Indicator
  ,                                       ! Beam Solar Day Schedule Name
  ,                                       ! Diffuse Solar Day Schedule Name
  0.443,                                  ! ASHRAE Taub {dimensionless}
  2.032;                                  ! ASHRAE Taud {dimensionless}

OS:ComponentData,
  {4d54daa0-4843-4a13-a280-366fb23a794e}, ! Handle
  Component Data 1,                       ! Name
  {e97e2c14-41cc-4280-be9c-1606c443a5b0}, ! UUID
  {97b58222-cdec-4b40-a53b-b672a89633ac}, ! Version UUID
  1366310827,                             ! Creation Timestamp
  1366310827,                             ! Version Timestamp
  {904563d9-de5c-4f27-9d41-ffcfa35bc55d}; ! Name of Object 1

