
OS:Version,
  {acc0c53e-5303-4104-8912-6a1b68335323}, ! Handle
  0.9.3;                                  ! Version Identifier

OS:SizingPeriod:DesignDay,
  {51289202-a4a1-4ca7-9244-f45e73e05924}, ! Handle
  Massena Ap Ann Clg .4% Condns DP=>MDB,  ! Name
  26.9,                                   ! Maximum Dry-Bulb Temperature {C}
  11.7,                                   ! Daily Dry-Bulb Temperature Range {deltaC}
  22.4,                                   ! Humidity Indicating Conditions at Maximum Dry-Bulb {BasedOnField A3}
  100547,                                 ! Barometric Pressure {Pa}
  4.7,                                    ! Wind Speed {m/s}
  240,                                    ! Wind Direction {deg}
  0,                                      ! Sky Clearness
  0,                                      ! Rain Indicator
  0,                                      ! Snow Indicator
  21,                                     ! Day of Month
  7,                                      ! Month
  SummerDesignDay,                        ! Day Type
  0,                                      ! Daylight Saving Time Indicator
  Dewpoint,                               ! Humidity Indicating Type
  ,                                       ! Humidity Indicating Day Schedule Name
  DefaultMultipliers,                     ! Dry-Bulb Temperature Range Modifier Type
  ,                                       ! Dry-Bulb Temperature Range Modifier Schedule Name
  ASHRAETau,                              ! Solar Model Indicator
  ,                                       ! Beam Solar Day Schedule Name
  ,                                       ! Diffuse Solar Day Schedule Name
  0.454,                                  ! ASHRAE Taub {dimensionless}
  2.024;                                  ! ASHRAE Taud {dimensionless}

OS:ComponentData,
  {d01e8713-b6f8-45db-bbf8-1356b4673f8b}, ! Handle
  Component Data 1,                       ! Name
  {3739dc58-dfeb-423e-97b4-d39ed2a0e7b8}, ! UUID
  {1a054530-e29f-4406-8c31-ea036a2e37ee}, ! Version UUID
  1366309655,                             ! Creation Timestamp
  1366309655,                             ! Version Timestamp
  {51289202-a4a1-4ca7-9244-f45e73e05924}; ! Name of Object 1

