
OS:Version,
  {94a4b821-c4c1-4eb5-8f48-56bd686e627c}, ! Handle
  0.9.3;                                  ! Version Identifier

OS:SizingPeriod:DesignDay,
  {4950d9ca-3b73-4b45-b1cc-ccdea8809617}, ! Handle
  Shishmaref  Awos Ann Htg 99.6% Condns DB, ! Name
  -36.1,                                  ! Maximum Dry-Bulb Temperature {C}
  0,                                      ! Daily Dry-Bulb Temperature Range {deltaC}
  -36.1,                                  ! Humidity Indicating Conditions at Maximum Dry-Bulb {BasedOnField A3}
  101301,                                 ! Barometric Pressure {Pa}
  4,                                      ! Wind Speed {m/s}
  250,                                    ! Wind Direction {deg}
  0,                                      ! Sky Clearness
  0,                                      ! Rain Indicator
  0,                                      ! Snow Indicator
  21,                                     ! Day of Month
  1,                                      ! Month
  WinterDesignDay,                        ! Day Type
  0,                                      ! Daylight Saving Time Indicator
  Wetbulb,                                ! Humidity Indicating Type
  ,                                       ! Humidity Indicating Day Schedule Name
  DefaultMultipliers,                     ! Dry-Bulb Temperature Range Modifier Type
  ,                                       ! Dry-Bulb Temperature Range Modifier Schedule Name
  ASHRAEClearSky;                         ! Solar Model Indicator

OS:ComponentData,
  {eba2f474-9c47-427a-8321-832dcd8abcce}, ! Handle
  Component Data 1,                       ! Name
  {983399a5-aecd-4d78-8007-8dfea105cb6a}, ! UUID
  {660d04ab-1cce-4268-b5fb-3439e0a590bd}, ! Version UUID
  1366305545,                             ! Creation Timestamp
  1366305545,                             ! Version Timestamp
  {4950d9ca-3b73-4b45-b1cc-ccdea8809617}; ! Name of Object 1

