
OS:Version,
  {91d76ff7-53b3-4d46-87ae-9a824b6b537f}, ! Handle
  0.9.3;                                  ! Version Identifier

OS:SizingPeriod:DesignDay,
  {00c5556a-6ebc-4edf-b5e3-38e465d3ce0c}, ! Handle
  SAN_ANGELO Ann Clg 1% Condns DB=>MWB,   ! Name
  36.7,                                   ! Maximum Dry-Bulb Temperature {C}
  12.8,                                   ! Daily Dry-Bulb Temperature Range {deltaC}
  21.1,                                   ! Humidity Indicating Conditions at Maximum Dry-Bulb {BasedOnField A3}
  94526,                                  ! Barometric Pressure {Pa}
  4.9,                                    ! Wind Speed {m/s}
  170,                                    ! Wind Direction {deg}
  0,                                      ! Sky Clearness
  0,                                      ! Rain Indicator
  0,                                      ! Snow Indicator
  21,                                     ! Day of Month
  7,                                      ! Month
  SummerDesignDay,                        ! Day Type
  0,                                      ! Daylight Saving Time Indicator
  Wetbulb,                                ! Humidity Indicating Type
  ,                                       ! Humidity Indicating Day Schedule Name
  DefaultMultipliers,                     ! Dry-Bulb Temperature Range Modifier Type
  ,                                       ! Dry-Bulb Temperature Range Modifier Schedule Name
  ASHRAETau,                              ! Solar Model Indicator
  ,                                       ! Beam Solar Day Schedule Name
  ,                                       ! Diffuse Solar Day Schedule Name
  0.454,                                  ! ASHRAE Taub {dimensionless}
  2.053;                                  ! ASHRAE Taud {dimensionless}

