
OS:Version,
  {f58e03bb-ae09-4c56-b180-cb65c96cad88}, ! Handle
  0.9.3;                                  ! Version Identifier

OS:SizingPeriod:DesignDay,
  {4b298a50-979c-4d2d-9301-cc01c4b704fa}, ! Handle
  Orlando Executive Ap Ann Hum_n 99% Condns DP=>MCDB, ! Name
  11.3,                                   ! Maximum Dry-Bulb Temperature {C}
  0,                                      ! Daily Dry-Bulb Temperature Range {deltaC}
  -2.4,                                   ! Humidity Indicating Conditions at Maximum Dry-Bulb {BasedOnField A3}
  100929,                                 ! Barometric Pressure {Pa}
  3.5,                                    ! Wind Speed {m/s}
  310,                                    ! Wind Direction {deg}
  0,                                      ! Sky Clearness
  0,                                      ! Rain Indicator
  0,                                      ! Snow Indicator
  21,                                     ! Day of Month
  12,                                     ! Month
  WinterDesignDay,                        ! Day Type
  0,                                      ! Daylight Saving Time Indicator
  Dewpoint,                               ! Humidity Indicating Type
  ,                                       ! Humidity Indicating Day Schedule Name
  DefaultMultipliers,                     ! Dry-Bulb Temperature Range Modifier Type
  ,                                       ! Dry-Bulb Temperature Range Modifier Schedule Name
  ASHRAEClearSky;                         ! Solar Model Indicator

OS:ComponentData,
  {053bdfec-1832-4ddf-b30f-157d2517814d}, ! Handle
  Component Data 1,                       ! Name
  {293cb11d-239b-4243-b360-0dd530698da2}, ! UUID
  {29e4d3e1-6fdb-4122-915a-59f7f32bcfeb}, ! Version UUID
  1366306891,                             ! Creation Timestamp
  1366306891,                             ! Version Timestamp
  {4b298a50-979c-4d2d-9301-cc01c4b704fa}; ! Name of Object 1

