
OS:Version,
  {4680fba9-f250-4c05-9b31-ae38c6b2e7f9}, ! Handle
  0.9.3;                                  ! Version Identifier

OS:SizingPeriod:DesignDay,
  {adcbb038-c34c-448b-9707-91f0c85ec79b}, ! Handle
  Minot Faa Ap Ann Htg Wind 99% Condns WS=>MCDB, ! Name
  -9.3,                                   ! Maximum Dry-Bulb Temperature {C}
  0,                                      ! Daily Dry-Bulb Temperature Range {deltaC}
  -9.3,                                   ! Humidity Indicating Conditions at Maximum Dry-Bulb {BasedOnField A3}
  95198,                                  ! Barometric Pressure {Pa}
  12.8,                                   ! Wind Speed {m/s}
  280,                                    ! Wind Direction {deg}
  0,                                      ! Sky Clearness
  0,                                      ! Rain Indicator
  0,                                      ! Snow Indicator
  21,                                     ! Day of Month
  1,                                      ! Month
  WinterDesignDay,                        ! Day Type
  0,                                      ! Daylight Saving Time Indicator
  Wetbulb,                                ! Humidity Indicating Type
  ,                                       ! Humidity Indicating Day Schedule Name
  DefaultMultipliers,                     ! Dry-Bulb Temperature Range Modifier Type
  ,                                       ! Dry-Bulb Temperature Range Modifier Schedule Name
  ASHRAEClearSky;                         ! Solar Model Indicator

OS:ComponentData,
  {e7241777-127d-462e-8da6-39e867d946f2}, ! Handle
  Component Data 1,                       ! Name
  {9838a80b-c379-4537-8810-5ee0af581d0f}, ! UUID
  {0f898e4e-229a-43fb-8605-6b58e3613433}, ! Version UUID
  1366309067,                             ! Creation Timestamp
  1366309067,                             ! Version Timestamp
  {adcbb038-c34c-448b-9707-91f0c85ec79b}; ! Name of Object 1

