
OS:Version,
  {e1b9330b-0a0c-41a6-b212-d9a58f88b047}, ! Handle
  0.9.3;                                  ! Version Identifier

OS:SizingPeriod:DesignDay,
  {351a2476-14ab-4d97-aa16-af00fb480ccf}, ! Handle
  March Afb Ann Hum_n 99% Condns DP=>MCDB, ! Name
  14.7,                                   ! Maximum Dry-Bulb Temperature {C}
  0,                                      ! Daily Dry-Bulb Temperature Range {deltaC}
  -12.2,                                  ! Humidity Indicating Conditions at Maximum Dry-Bulb {BasedOnField A3}
  95897,                                  ! Barometric Pressure {Pa}
  0.9,                                    ! Wind Speed {m/s}
  300,                                    ! Wind Direction {deg}
  0,                                      ! Sky Clearness
  0,                                      ! Rain Indicator
  0,                                      ! Snow Indicator
  21,                                     ! Day of Month
  12,                                     ! Month
  WinterDesignDay,                        ! Day Type
  0,                                      ! Daylight Saving Time Indicator
  Dewpoint,                               ! Humidity Indicating Type
  ,                                       ! Humidity Indicating Day Schedule Name
  DefaultMultipliers,                     ! Dry-Bulb Temperature Range Modifier Type
  ,                                       ! Dry-Bulb Temperature Range Modifier Schedule Name
  ASHRAEClearSky;                         ! Solar Model Indicator

OS:ComponentData,
  {d4d3ba0c-bdae-41f7-88d2-14df941a9360}, ! Handle
  Component Data 1,                       ! Name
  {d27a7bbe-c0b2-4ce3-bcfe-271343335740}, ! UUID
  {79451812-f6a2-4cbc-9655-ad0cfbe3af01}, ! Version UUID
  1366306486,                             ! Creation Timestamp
  1366306486,                             ! Version Timestamp
  {351a2476-14ab-4d97-aa16-af00fb480ccf}; ! Name of Object 1

