
OS:Version,
  {8b0c5a7f-b63e-48b2-9dc1-5f7011e5754d}, ! Handle
  0.9.3;                                  ! Version Identifier

OS:SizingPeriod:DesignDay,
  {144eb4d1-ca36-4ed2-86e4-5f2293920d38}, ! Handle
  Utica Oneida County Ap Ann Clg 2% Condns DP=>MDB, ! Name
  24.4,                                   ! Maximum Dry-Bulb Temperature {C}
  10.7,                                   ! Daily Dry-Bulb Temperature Range {deltaC}
  20.5,                                   ! Humidity Indicating Conditions at Maximum Dry-Bulb {BasedOnField A3}
  98745,                                  ! Barometric Pressure {Pa}
  3.9,                                    ! Wind Speed {m/s}
  280,                                    ! Wind Direction {deg}
  0,                                      ! Sky Clearness
  0,                                      ! Rain Indicator
  0,                                      ! Snow Indicator
  21,                                     ! Day of Month
  7,                                      ! Month
  SummerDesignDay,                        ! Day Type
  0,                                      ! Daylight Saving Time Indicator
  Dewpoint,                               ! Humidity Indicating Type
  ,                                       ! Humidity Indicating Day Schedule Name
  DefaultMultipliers,                     ! Dry-Bulb Temperature Range Modifier Type
  ,                                       ! Dry-Bulb Temperature Range Modifier Schedule Name
  ASHRAETau,                              ! Solar Model Indicator
  ,                                       ! Beam Solar Day Schedule Name
  ,                                       ! Diffuse Solar Day Schedule Name
  0.461,                                  ! ASHRAE Taub {dimensionless}
  1.999;                                  ! ASHRAE Taud {dimensionless}

OS:ComponentData,
  {6d0e1aaf-fecd-4faf-be9e-9f0264bccab8}, ! Handle
  Component Data 1,                       ! Name
  {47736dad-3949-4eb0-a8c3-46a30f27f3f4}, ! UUID
  {aff3f2dd-e3bc-4d28-bcdc-2d8daf42a29f}, ! Version UUID
  1366309746,                             ! Creation Timestamp
  1366309746,                             ! Version Timestamp
  {144eb4d1-ca36-4ed2-86e4-5f2293920d38}; ! Name of Object 1

