
OS:Version,
  {9b970dfc-8130-4609-aa4c-bbdd20f9852b}, ! Handle
  0.9.3;                                  ! Version Identifier

OS:SizingPeriod:DesignDay,
  {80284e62-ef3c-43d7-9618-888bf4b1180d}, ! Handle
  Muskegon County Arpt Ann Clg .4% Condns WB=>MDB, ! Name
  28.1,                                   ! Maximum Dry-Bulb Temperature {C}
  10,                                     ! Daily Dry-Bulb Temperature Range {deltaC}
  24.2,                                   ! Humidity Indicating Conditions at Maximum Dry-Bulb {BasedOnField A3}
  99063,                                  ! Barometric Pressure {Pa}
  5.4,                                    ! Wind Speed {m/s}
  200,                                    ! Wind Direction {deg}
  0,                                      ! Sky Clearness
  0,                                      ! Rain Indicator
  0,                                      ! Snow Indicator
  21,                                     ! Day of Month
  7,                                      ! Month
  SummerDesignDay,                        ! Day Type
  0,                                      ! Daylight Saving Time Indicator
  Wetbulb,                                ! Humidity Indicating Type
  ,                                       ! Humidity Indicating Day Schedule Name
  DefaultMultipliers,                     ! Dry-Bulb Temperature Range Modifier Type
  ,                                       ! Dry-Bulb Temperature Range Modifier Schedule Name
  ASHRAETau,                              ! Solar Model Indicator
  ,                                       ! Beam Solar Day Schedule Name
  ,                                       ! Diffuse Solar Day Schedule Name
  0.436,                                  ! ASHRAE Taub {dimensionless}
  2.131;                                  ! ASHRAE Taud {dimensionless}

OS:ComponentData,
  {727949bd-233c-473d-9efd-5601efca5550}, ! Handle
  Component Data 1,                       ! Name
  {65d7777d-54c7-4acf-a767-6105fcadae66}, ! UUID
  {c1362cfa-4103-4612-9f4f-cf0ff2430e32}, ! Version UUID
  1366308076,                             ! Creation Timestamp
  1366308076,                             ! Version Timestamp
  {80284e62-ef3c-43d7-9618-888bf4b1180d}; ! Name of Object 1

