
OS:Version,
  {fe5b2e03-6029-4159-896a-44696488399b}, ! Handle
  0.9.3;                                  ! Version Identifier

OS:SizingPeriod:DesignDay,
  {384fe204-8274-4968-b132-ae611324f345}, ! Handle
  Montague Siskiyou County Ap Ann Hum_n 99.6% Condns DP=>MCDB, ! Name
  -6.1,                                   ! Maximum Dry-Bulb Temperature {C}
  0,                                      ! Daily Dry-Bulb Temperature Range {deltaC}
  -12.4,                                  ! Humidity Indicating Conditions at Maximum Dry-Bulb {BasedOnField A3}
  92043,                                  ! Barometric Pressure {Pa}
  0.9,                                    ! Wind Speed {m/s}
  60,                                     ! Wind Direction {deg}
  0,                                      ! Sky Clearness
  0,                                      ! Rain Indicator
  0,                                      ! Snow Indicator
  21,                                     ! Day of Month
  12,                                     ! Month
  WinterDesignDay,                        ! Day Type
  0,                                      ! Daylight Saving Time Indicator
  Dewpoint,                               ! Humidity Indicating Type
  ,                                       ! Humidity Indicating Day Schedule Name
  DefaultMultipliers,                     ! Dry-Bulb Temperature Range Modifier Type
  ,                                       ! Dry-Bulb Temperature Range Modifier Schedule Name
  ASHRAEClearSky;                         ! Solar Model Indicator

OS:ComponentData,
  {fcd2d4a2-71e1-4a85-ada1-e2e476fa678f}, ! Handle
  Component Data 1,                       ! Name
  {74c59574-5285-48af-9ad9-457ab4630ba4}, ! UUID
  {36255d05-dd13-4f0f-84cd-be89b54505ce}, ! Version UUID
  1366306493,                             ! Creation Timestamp
  1366306493,                             ! Version Timestamp
  {384fe204-8274-4968-b132-ae611324f345}; ! Name of Object 1

