
OS:Version,
  {9b9c2042-819a-4919-930f-6d286b0ade78}, ! Handle
  0.9.3;                                  ! Version Identifier

OS:SizingPeriod:DesignDay,
  {6d40c5db-d396-4ba7-a437-89388d725ab1}, ! Handle
  Salt Lake City IntL Arpt  Isi Ann Clg 2% Condns DP=>MDB, ! Name
  23.3,                                   ! Maximum Dry-Bulb Temperature {C}
  14.4,                                   ! Daily Dry-Bulb Temperature Range {deltaC}
  13.7,                                   ! Humidity Indicating Conditions at Maximum Dry-Bulb {BasedOnField A3}
  86779,                                  ! Barometric Pressure {Pa}
  5.1,                                    ! Wind Speed {m/s}
  340,                                    ! Wind Direction {deg}
  0,                                      ! Sky Clearness
  0,                                      ! Rain Indicator
  0,                                      ! Snow Indicator
  21,                                     ! Day of Month
  7,                                      ! Month
  SummerDesignDay,                        ! Day Type
  0,                                      ! Daylight Saving Time Indicator
  Dewpoint,                               ! Humidity Indicating Type
  ,                                       ! Humidity Indicating Day Schedule Name
  DefaultMultipliers,                     ! Dry-Bulb Temperature Range Modifier Type
  ,                                       ! Dry-Bulb Temperature Range Modifier Schedule Name
  ASHRAETau,                              ! Solar Model Indicator
  ,                                       ! Beam Solar Day Schedule Name
  ,                                       ! Diffuse Solar Day Schedule Name
  0.44,                                   ! ASHRAE Taub {dimensionless}
  1.968;                                  ! ASHRAE Taud {dimensionless}

OS:ComponentData,
  {cbdcb70b-3d65-4e0e-9219-90b00744c104}, ! Handle
  Component Data 1,                       ! Name
  {6892c7d2-8666-4e8c-b065-69928f0c55d6}, ! UUID
  {4a3e9230-3281-47ba-bbbb-e5a83b9e2b15}, ! Version UUID
  1366311000,                             ! Creation Timestamp
  1366311000,                             ! Version Timestamp
  {6d40c5db-d396-4ba7-a437-89388d725ab1}; ! Name of Object 1

