
OS:Version,
  {d431ba1d-c67c-41dc-868d-7c38b100a88c}, ! Handle
  0.9.3;                                  ! Version Identifier

OS:SizingPeriod:DesignDay,
  {1ca8a34c-867d-42d2-b74a-d4d64698eb79}, ! Handle
  Topeka Forbes Field Ann Htg Wind 99.6% Condns WS=>MCDB, ! Name
  1,                                      ! Maximum Dry-Bulb Temperature {C}
  0,                                      ! Daily Dry-Bulb Temperature Range {deltaC}
  1,                                      ! Humidity Indicating Conditions at Maximum Dry-Bulb {BasedOnField A3}
  97481,                                  ! Barometric Pressure {Pa}
  12.6,                                   ! Wind Speed {m/s}
  320,                                    ! Wind Direction {deg}
  0,                                      ! Sky Clearness
  0,                                      ! Rain Indicator
  0,                                      ! Snow Indicator
  21,                                     ! Day of Month
  1,                                      ! Month
  WinterDesignDay,                        ! Day Type
  0,                                      ! Daylight Saving Time Indicator
  Wetbulb,                                ! Humidity Indicating Type
  ,                                       ! Humidity Indicating Day Schedule Name
  DefaultMultipliers,                     ! Dry-Bulb Temperature Range Modifier Type
  ,                                       ! Dry-Bulb Temperature Range Modifier Schedule Name
  ASHRAEClearSky;                         ! Solar Model Indicator

