
OS:Version,
  {582e1a24-210f-4e2a-8320-e36fb0359266}, ! Handle
  0.9.3;                                  ! Version Identifier

OS:SizingPeriod:DesignDay,
  {975e5df8-858f-4de8-9bbe-1cc5736440e4}, ! Handle
  Pierre Municipal Ap Ann Clg 1% Condns Enth=>MDB, ! Name
  31.2,                                   ! Maximum Dry-Bulb Temperature {C}
  14.3,                                   ! Daily Dry-Bulb Temperature Range {deltaC}
  71000,                                  ! Humidity Indicating Conditions at Maximum Dry-Bulb {BasedOnField A3}
  95141,                                  ! Barometric Pressure {Pa}
  6.2,                                    ! Wind Speed {m/s}
  170,                                    ! Wind Direction {deg}
  0,                                      ! Sky Clearness
  0,                                      ! Rain Indicator
  0,                                      ! Snow Indicator
  21,                                     ! Day of Month
  7,                                      ! Month
  SummerDesignDay,                        ! Day Type
  0,                                      ! Daylight Saving Time Indicator
  Enthalpy,                               ! Humidity Indicating Type
  ,                                       ! Humidity Indicating Day Schedule Name
  DefaultMultipliers,                     ! Dry-Bulb Temperature Range Modifier Type
  ,                                       ! Dry-Bulb Temperature Range Modifier Schedule Name
  ASHRAETau,                              ! Solar Model Indicator
  ,                                       ! Beam Solar Day Schedule Name
  ,                                       ! Diffuse Solar Day Schedule Name
  0.427,                                  ! ASHRAE Taub {dimensionless}
  2.103;                                  ! ASHRAE Taud {dimensionless}

