
OS:Version,
  {1b96648e-67a6-46d6-b3f6-9fdbee5b0733}, ! Handle
  0.9.3;                                  ! Version Identifier

OS:SizingPeriod:DesignDay,
  {7429e648-899c-4560-b686-30de4f8af9cd}, ! Handle
  Wenatchee Pangborn Ann Clg .4% Condns WB=>MDB, ! Name
  32.9,                                   ! Maximum Dry-Bulb Temperature {C}
  13.8,                                   ! Daily Dry-Bulb Temperature Range {deltaC}
  19.8,                                   ! Humidity Indicating Conditions at Maximum Dry-Bulb {BasedOnField A3}
  96854,                                  ! Barometric Pressure {Pa}
  3.6,                                    ! Wind Speed {m/s}
  120,                                    ! Wind Direction {deg}
  0,                                      ! Sky Clearness
  0,                                      ! Rain Indicator
  0,                                      ! Snow Indicator
  21,                                     ! Day of Month
  7,                                      ! Month
  SummerDesignDay,                        ! Day Type
  0,                                      ! Daylight Saving Time Indicator
  Wetbulb,                                ! Humidity Indicating Type
  ,                                       ! Humidity Indicating Day Schedule Name
  DefaultMultipliers,                     ! Dry-Bulb Temperature Range Modifier Type
  ,                                       ! Dry-Bulb Temperature Range Modifier Schedule Name
  ASHRAETau,                              ! Solar Model Indicator
  ,                                       ! Beam Solar Day Schedule Name
  ,                                       ! Diffuse Solar Day Schedule Name
  0.377,                                  ! ASHRAE Taub {dimensionless}
  2.355;                                  ! ASHRAE Taud {dimensionless}

OS:ComponentData,
  {94221f50-8882-447b-947e-2083459d244a}, ! Handle
  Component Data 1,                       ! Name
  {6030d85d-a691-4364-9d3b-c00e140367eb}, ! UUID
  {76e049ba-0773-45a8-ac5d-427c6e493cf4}, ! Version UUID
  1366311426,                             ! Creation Timestamp
  1366311426,                             ! Version Timestamp
  {7429e648-899c-4560-b686-30de4f8af9cd}; ! Name of Object 1

