
OS:Version,
  {4b5eab0c-d14b-47e5-9c78-855d839b6f98}, ! Handle
  0.9.3;                                  ! Version Identifier

OS:SizingPeriod:DesignDay,
  {3b47f1f4-6838-4e93-ae68-e450badb65b5}, ! Handle
  WICHITA_FALLS Ann Clg .4% Condns DP=>MDB, ! Name
  28.2,                                   ! Maximum Dry-Bulb Temperature {C}
  13,                                     ! Daily Dry-Bulb Temperature Range {deltaC}
  23.3,                                   ! Humidity Indicating Conditions at Maximum Dry-Bulb {BasedOnField A3}
  97609,                                  ! Barometric Pressure {Pa}
  5.5,                                    ! Wind Speed {m/s}
  180,                                    ! Wind Direction {deg}
  0,                                      ! Sky Clearness
  0,                                      ! Rain Indicator
  0,                                      ! Snow Indicator
  21,                                     ! Day of Month
  7,                                      ! Month
  SummerDesignDay,                        ! Day Type
  0,                                      ! Daylight Saving Time Indicator
  Dewpoint,                               ! Humidity Indicating Type
  ,                                       ! Humidity Indicating Day Schedule Name
  DefaultMultipliers,                     ! Dry-Bulb Temperature Range Modifier Type
  ,                                       ! Dry-Bulb Temperature Range Modifier Schedule Name
  ASHRAETau,                              ! Solar Model Indicator
  ,                                       ! Beam Solar Day Schedule Name
  ,                                       ! Diffuse Solar Day Schedule Name
  0.44,                                   ! ASHRAE Taub {dimensionless}
  2.15;                                   ! ASHRAE Taud {dimensionless}

OS:ComponentData,
  {ea6c95c1-ed63-4d32-9a75-c9f3a3102be5}, ! Handle
  Component Data 1,                       ! Name
  {607e0668-06fb-427e-b347-3665dec736a2}, ! UUID
  {7ba28f44-28e1-48c6-b67e-1040931170ee}, ! Version UUID
  1366310929,                             ! Creation Timestamp
  1366310929,                             ! Version Timestamp
  {3b47f1f4-6838-4e93-ae68-e450badb65b5}; ! Name of Object 1

