
OS:Version,
  {8e0c5d89-cbc0-4651-b468-1b70627c1708}, ! Handle
  0.9.3;                                  ! Version Identifier

OS:SizingPeriod:DesignDay,
  {a3cca2a3-1f3a-4a00-8f60-e12ad5e00824}, ! Handle
  Oakland Co Intl Ann Htg Wind 99.6% Condns WS=>MCDB, ! Name
  -4.1,                                   ! Maximum Dry-Bulb Temperature {C}
  0,                                      ! Daily Dry-Bulb Temperature Range {deltaC}
  -4.1,                                   ! Humidity Indicating Conditions at Maximum Dry-Bulb {BasedOnField A3}
  97703,                                  ! Barometric Pressure {Pa}
  12.4,                                   ! Wind Speed {m/s}
  300,                                    ! Wind Direction {deg}
  0,                                      ! Sky Clearness
  0,                                      ! Rain Indicator
  0,                                      ! Snow Indicator
  21,                                     ! Day of Month
  1,                                      ! Month
  WinterDesignDay,                        ! Day Type
  0,                                      ! Daylight Saving Time Indicator
  Wetbulb,                                ! Humidity Indicating Type
  ,                                       ! Humidity Indicating Day Schedule Name
  DefaultMultipliers,                     ! Dry-Bulb Temperature Range Modifier Type
  ,                                       ! Dry-Bulb Temperature Range Modifier Schedule Name
  ASHRAEClearSky;                         ! Solar Model Indicator

OS:ComponentData,
  {96813274-96bf-4832-be5d-614efdbe30ec}, ! Handle
  Component Data 1,                       ! Name
  {7fff1520-4b7f-45c5-a8b9-c5e56572ec99}, ! UUID
  {6ff3e3dc-d229-4f69-8c93-11e46b95c3b2}, ! Version UUID
  1366308079,                             ! Creation Timestamp
  1366308079,                             ! Version Timestamp
  {a3cca2a3-1f3a-4a00-8f60-e12ad5e00824}; ! Name of Object 1

