
OS:Version,
  {157f0132-7a92-44f0-ba80-c1c874e0e371}, ! Handle
  0.9.3;                                  ! Version Identifier

OS:SizingPeriod:DesignDay,
  {8d898e38-e2f8-4981-a348-06cfd24f562a}, ! Handle
  Pueblo Memorial Ap Ann Clg 1% Condns DB=>MWB, ! Name
  35.4,                                   ! Maximum Dry-Bulb Temperature {C}
  18,                                     ! Daily Dry-Bulb Temperature Range {deltaC}
  16.9,                                   ! Humidity Indicating Conditions at Maximum Dry-Bulb {BasedOnField A3}
  85306,                                  ! Barometric Pressure {Pa}
  5.1,                                    ! Wind Speed {m/s}
  120,                                    ! Wind Direction {deg}
  0,                                      ! Sky Clearness
  0,                                      ! Rain Indicator
  0,                                      ! Snow Indicator
  21,                                     ! Day of Month
  7,                                      ! Month
  SummerDesignDay,                        ! Day Type
  0,                                      ! Daylight Saving Time Indicator
  Wetbulb,                                ! Humidity Indicating Type
  ,                                       ! Humidity Indicating Day Schedule Name
  DefaultMultipliers,                     ! Dry-Bulb Temperature Range Modifier Type
  ,                                       ! Dry-Bulb Temperature Range Modifier Schedule Name
  ASHRAETau,                              ! Solar Model Indicator
  ,                                       ! Beam Solar Day Schedule Name
  ,                                       ! Diffuse Solar Day Schedule Name
  0.435,                                  ! ASHRAE Taub {dimensionless}
  1.969;                                  ! ASHRAE Taud {dimensionless}

OS:ComponentData,
  {b86de4cd-3206-4d87-a21c-bebae7a5ed19}, ! Handle
  Component Data 1,                       ! Name
  {e4ce9108-e32d-4c68-92d0-3526798fbaa3}, ! UUID
  {4b76ca48-8fdd-42c5-8b74-c5b0b427534b}, ! Version UUID
  1366306731,                             ! Creation Timestamp
  1366306731,                             ! Version Timestamp
  {8d898e38-e2f8-4981-a348-06cfd24f562a}; ! Name of Object 1

