
OS:Version,
  {243196fb-8667-42e4-abca-68f380a6bd07}, ! Handle
  0.9.3;                                  ! Version Identifier

OS:SizingPeriod:DesignDay,
  {59529f8f-2d8c-4d6b-9c2e-57f60d45f50e}, ! Handle
  PENDLETON Ann Htg 99.6% Condns DB,      ! Name
  -13.9,                                  ! Maximum Dry-Bulb Temperature {C}
  0,                                      ! Daily Dry-Bulb Temperature Range {deltaC}
  -13.9,                                  ! Humidity Indicating Conditions at Maximum Dry-Bulb {BasedOnField A3}
  95966,                                  ! Barometric Pressure {Pa}
  2,                                      ! Wind Speed {m/s}
  140,                                    ! Wind Direction {deg}
  0,                                      ! Sky Clearness
  0,                                      ! Rain Indicator
  0,                                      ! Snow Indicator
  21,                                     ! Day of Month
  12,                                     ! Month
  WinterDesignDay,                        ! Day Type
  0,                                      ! Daylight Saving Time Indicator
  Wetbulb,                                ! Humidity Indicating Type
  ,                                       ! Humidity Indicating Day Schedule Name
  DefaultMultipliers,                     ! Dry-Bulb Temperature Range Modifier Type
  ,                                       ! Dry-Bulb Temperature Range Modifier Schedule Name
  ASHRAEClearSky;                         ! Solar Model Indicator

OS:ComponentData,
  {e6d4fc50-5035-4939-aec2-154064f4911d}, ! Handle
  Component Data 1,                       ! Name
  {771dc9cd-69b9-41ab-87bc-3ca8a3540ef6}, ! UUID
  {c06f4dd9-b438-4248-bf02-8db30aaad30f}, ! Version UUID
  1366310062,                             ! Creation Timestamp
  1366310062,                             ! Version Timestamp
  {59529f8f-2d8c-4d6b-9c2e-57f60d45f50e}; ! Name of Object 1

