
OS:Version,
  {85d85451-dc11-4557-830d-14f6dac8b2aa}, ! Handle
  0.9.3;                                  ! Version Identifier

OS:SizingPeriod:DesignDay,
  {423cbf15-471a-40ac-b22a-e889e71eee04}, ! Handle
  Raleigh Durham International Ann Clg 1% Condns Enth=>MDB, ! Name
  31,                                     ! Maximum Dry-Bulb Temperature {C}
  10.5,                                   ! Daily Dry-Bulb Temperature Range {deltaC}
  77100,                                  ! Humidity Indicating Conditions at Maximum Dry-Bulb {BasedOnField A3}
  99809,                                  ! Barometric Pressure {Pa}
  4,                                      ! Wind Speed {m/s}
  240,                                    ! Wind Direction {deg}
  0,                                      ! Sky Clearness
  0,                                      ! Rain Indicator
  0,                                      ! Snow Indicator
  21,                                     ! Day of Month
  7,                                      ! Month
  SummerDesignDay,                        ! Day Type
  0,                                      ! Daylight Saving Time Indicator
  Enthalpy,                               ! Humidity Indicating Type
  ,                                       ! Humidity Indicating Day Schedule Name
  DefaultMultipliers,                     ! Dry-Bulb Temperature Range Modifier Type
  ,                                       ! Dry-Bulb Temperature Range Modifier Schedule Name
  ASHRAETau,                              ! Solar Model Indicator
  ,                                       ! Beam Solar Day Schedule Name
  ,                                       ! Diffuse Solar Day Schedule Name
  0.577,                                  ! ASHRAE Taub {dimensionless}
  1.722;                                  ! ASHRAE Taud {dimensionless}

OS:ComponentData,
  {028b97cb-35d0-48b4-96d6-b5d5c9ba16fc}, ! Handle
  Component Data 1,                       ! Name
  {6a7f91b1-e9a4-43a9-941e-c040895cf1b2}, ! UUID
  {f650f0c1-5fcc-4f71-8754-733a929f59ac}, ! Version UUID
  1366308975,                             ! Creation Timestamp
  1366308975,                             ! Version Timestamp
  {423cbf15-471a-40ac-b22a-e889e71eee04}; ! Name of Object 1

