
OS:Version,
  {2bc5243c-cd54-4730-8c53-e6edf68832d2}, ! Handle
  0.9.3;                                  ! Version Identifier

OS:SizingPeriod:DesignDay,
  {d54f61bd-8e5d-45a6-8774-09d56774f036}, ! Handle
  Portland International Ap Ann Clg 2% Condns WB=>MDB, ! Name
  27.3,                                   ! Maximum Dry-Bulb Temperature {C}
  12.2,                                   ! Daily Dry-Bulb Temperature Range {deltaC}
  19,                                     ! Humidity Indicating Conditions at Maximum Dry-Bulb {BasedOnField A3}
  101253,                                 ! Barometric Pressure {Pa}
  4.7,                                    ! Wind Speed {m/s}
  310,                                    ! Wind Direction {deg}
  0,                                      ! Sky Clearness
  0,                                      ! Rain Indicator
  0,                                      ! Snow Indicator
  21,                                     ! Day of Month
  8,                                      ! Month
  SummerDesignDay,                        ! Day Type
  0,                                      ! Daylight Saving Time Indicator
  Wetbulb,                                ! Humidity Indicating Type
  ,                                       ! Humidity Indicating Day Schedule Name
  DefaultMultipliers,                     ! Dry-Bulb Temperature Range Modifier Type
  ,                                       ! Dry-Bulb Temperature Range Modifier Schedule Name
  ASHRAETau,                              ! Solar Model Indicator
  ,                                       ! Beam Solar Day Schedule Name
  ,                                       ! Diffuse Solar Day Schedule Name
  0.358,                                  ! ASHRAE Taub {dimensionless}
  2.549;                                  ! ASHRAE Taud {dimensionless}

OS:ComponentData,
  {c0f0986d-90f7-4282-89d0-4fa0dc76a995}, ! Handle
  Component Data 1,                       ! Name
  {e2c28abf-6575-4e45-976a-e4ae03bec722}, ! UUID
  {bdd2c96c-7a85-4b46-82d3-47a88894769f}, ! Version UUID
  1366310088,                             ! Creation Timestamp
  1366310088,                             ! Version Timestamp
  {d54f61bd-8e5d-45a6-8774-09d56774f036}; ! Name of Object 1

