
OS:Version,
  {0f475066-624b-4af3-9b92-6d75ee49f773}, ! Handle
  0.9.3;                                  ! Version Identifier

OS:SizingPeriod:DesignDay,
  {ffe1abec-b4c0-4777-b73b-18a446f82055}, ! Handle
  Paducah Barkley Regional Ap Ann Clg .4% Condns DP=>MDB, ! Name
  29.8,                                   ! Maximum Dry-Bulb Temperature {C}
  10.8,                                   ! Daily Dry-Bulb Temperature Range {deltaC}
  25,                                     ! Humidity Indicating Conditions at Maximum Dry-Bulb {BasedOnField A3}
  99844,                                  ! Barometric Pressure {Pa}
  3.6,                                    ! Wind Speed {m/s}
  180,                                    ! Wind Direction {deg}
  0,                                      ! Sky Clearness
  0,                                      ! Rain Indicator
  0,                                      ! Snow Indicator
  21,                                     ! Day of Month
  7,                                      ! Month
  SummerDesignDay,                        ! Day Type
  0,                                      ! Daylight Saving Time Indicator
  Dewpoint,                               ! Humidity Indicating Type
  ,                                       ! Humidity Indicating Day Schedule Name
  DefaultMultipliers,                     ! Dry-Bulb Temperature Range Modifier Type
  ,                                       ! Dry-Bulb Temperature Range Modifier Schedule Name
  ASHRAETau,                              ! Solar Model Indicator
  ,                                       ! Beam Solar Day Schedule Name
  ,                                       ! Diffuse Solar Day Schedule Name
  0.495,                                  ! ASHRAE Taub {dimensionless}
  1.94;                                   ! ASHRAE Taud {dimensionless}

OS:ComponentData,
  {f49d4f4a-05b6-4b62-9173-e5b3cfe3b263}, ! Handle
  Component Data 1,                       ! Name
  {8255a7f8-03a1-449b-bbd1-bcf84f60ac04}, ! UUID
  {26dac0de-c6a1-44ec-a2dd-75ef7bd66384}, ! Version UUID
  1366307679,                             ! Creation Timestamp
  1366307679,                             ! Version Timestamp
  {ffe1abec-b4c0-4777-b73b-18a446f82055}; ! Name of Object 1

