
OS:Version,
  {ae4a877a-4c59-43e7-9d06-6175cc68b3ad}, ! Handle
  0.9.3;                                  ! Version Identifier

OS:SizingPeriod:DesignDay,
  {26d88493-ac7c-49e6-9845-5ad37a1c8a00}, ! Handle
  Thief River Awos Ann Clg .4% Condns Enth=>MDB, ! Name
  28,                                     ! Maximum Dry-Bulb Temperature {C}
  10.3,                                   ! Daily Dry-Bulb Temperature Range {deltaC}
  69800,                                  ! Humidity Indicating Conditions at Maximum Dry-Bulb {BasedOnField A3}
  97307,                                  ! Barometric Pressure {Pa}
  5.7,                                    ! Wind Speed {m/s}
  200,                                    ! Wind Direction {deg}
  0,                                      ! Sky Clearness
  0,                                      ! Rain Indicator
  0,                                      ! Snow Indicator
  21,                                     ! Day of Month
  7,                                      ! Month
  SummerDesignDay,                        ! Day Type
  0,                                      ! Daylight Saving Time Indicator
  Enthalpy,                               ! Humidity Indicating Type
  ,                                       ! Humidity Indicating Day Schedule Name
  DefaultMultipliers,                     ! Dry-Bulb Temperature Range Modifier Type
  ,                                       ! Dry-Bulb Temperature Range Modifier Schedule Name
  ASHRAETau,                              ! Solar Model Indicator
  ,                                       ! Beam Solar Day Schedule Name
  ,                                       ! Diffuse Solar Day Schedule Name
  0.394,                                  ! ASHRAE Taub {dimensionless}
  2.258;                                  ! ASHRAE Taud {dimensionless}

OS:ComponentData,
  {e204db24-bc9c-4082-9dac-e17f71c54b5b}, ! Handle
  Component Data 1,                       ! Name
  {72e81eb4-feb6-48ad-acb5-176eb5eb1889}, ! UUID
  {5801bcda-f89c-49b9-8fcb-44b12357b6b9}, ! Version UUID
  1366308442,                             ! Creation Timestamp
  1366308442,                             ! Version Timestamp
  {26d88493-ac7c-49e6-9845-5ad37a1c8a00}; ! Name of Object 1

