
OS:Version,
  {17ae087f-4fea-47ad-bcb8-43ae5ec3c6d2}, ! Handle
  0.9.3;                                  ! Version Identifier

OS:SizingPeriod:DesignDay,
  {aeddd49e-85af-4976-aab6-fc911a2081bd}, ! Handle
  San Angelo Mathis Field Ann Htg Wind 99.6% Condns WS=>MCDB, ! Name
  14.5,                                   ! Maximum Dry-Bulb Temperature {C}
  0,                                      ! Daily Dry-Bulb Temperature Range {deltaC}
  14.5,                                   ! Humidity Indicating Conditions at Maximum Dry-Bulb {BasedOnField A3}
  94503,                                  ! Barometric Pressure {Pa}
  12.8,                                   ! Wind Speed {m/s}
  40,                                     ! Wind Direction {deg}
  0,                                      ! Sky Clearness
  0,                                      ! Rain Indicator
  0,                                      ! Snow Indicator
  21,                                     ! Day of Month
  1,                                      ! Month
  WinterDesignDay,                        ! Day Type
  0,                                      ! Daylight Saving Time Indicator
  Wetbulb,                                ! Humidity Indicating Type
  ,                                       ! Humidity Indicating Day Schedule Name
  DefaultMultipliers,                     ! Dry-Bulb Temperature Range Modifier Type
  ,                                       ! Dry-Bulb Temperature Range Modifier Schedule Name
  ASHRAEClearSky;                         ! Solar Model Indicator

OS:ComponentData,
  {ebd6e816-5935-478a-9c08-484ce7250532}, ! Handle
  Component Data 1,                       ! Name
  {26fa8f1f-a118-4775-8fb2-847053725cf6}, ! UUID
  {64a40a4d-e25b-418d-8432-6d955290b47d}, ! Version UUID
  1366310872,                             ! Creation Timestamp
  1366310872,                             ! Version Timestamp
  {aeddd49e-85af-4976-aab6-fc911a2081bd}; ! Name of Object 1

