
OS:Version,
  {e70c9ffd-5eb7-42af-9eaa-f40af221d7da}, ! Handle
  0.9.3;                                  ! Version Identifier

OS:SizingPeriod:DesignDay,
  {f30b5f86-3aa3-4b05-93c4-d17f67c9ea19}, ! Handle
  Wilmington New Castle Cnty Ap Ann Clg 2% Condns DP=>MDB, ! Name
  26.4,                                   ! Maximum Dry-Bulb Temperature {C}
  9.5,                                    ! Daily Dry-Bulb Temperature Range {deltaC}
  22.9,                                   ! Humidity Indicating Conditions at Maximum Dry-Bulb {BasedOnField A3}
  101049,                                 ! Barometric Pressure {Pa}
  4.6,                                    ! Wind Speed {m/s}
  240,                                    ! Wind Direction {deg}
  0,                                      ! Sky Clearness
  0,                                      ! Rain Indicator
  0,                                      ! Snow Indicator
  21,                                     ! Day of Month
  7,                                      ! Month
  SummerDesignDay,                        ! Day Type
  0,                                      ! Daylight Saving Time Indicator
  Dewpoint,                               ! Humidity Indicating Type
  ,                                       ! Humidity Indicating Day Schedule Name
  DefaultMultipliers,                     ! Dry-Bulb Temperature Range Modifier Type
  ,                                       ! Dry-Bulb Temperature Range Modifier Schedule Name
  ASHRAETau,                              ! Solar Model Indicator
  ,                                       ! Beam Solar Day Schedule Name
  ,                                       ! Diffuse Solar Day Schedule Name
  0.557,                                  ! ASHRAE Taub {dimensionless}
  1.755;                                  ! ASHRAE Taud {dimensionless}

OS:ComponentData,
  {e68cef21-f75d-4574-837b-280cf8083759}, ! Handle
  Component Data 1,                       ! Name
  {5dd41649-88d4-4a90-9bc2-e90246e6e316}, ! UUID
  {f2763d64-6546-4efe-bf5a-ac3e4ccd6f53}, ! Version UUID
  1366306777,                             ! Creation Timestamp
  1366306777,                             ! Version Timestamp
  {f30b5f86-3aa3-4b05-93c4-d17f67c9ea19}; ! Name of Object 1

