
OS:Version,
  {36c6d712-d4be-4b63-8d5b-64894d853c8c}, ! Handle
  0.9.3;                                  ! Version Identifier

OS:SizingPeriod:DesignDay,
  {70645ca6-ad59-412c-9cd4-bfd642667531}, ! Handle
  Southwest Florida I Ann Htg 99.6% Condns DB, ! Name
  5.1,                                    ! Maximum Dry-Bulb Temperature {C}
  0,                                      ! Daily Dry-Bulb Temperature Range {deltaC}
  5.1,                                    ! Humidity Indicating Conditions at Maximum Dry-Bulb {BasedOnField A3}
  101217,                                 ! Barometric Pressure {Pa}
  3.2,                                    ! Wind Speed {m/s}
  20,                                     ! Wind Direction {deg}
  0,                                      ! Sky Clearness
  0,                                      ! Rain Indicator
  0,                                      ! Snow Indicator
  21,                                     ! Day of Month
  1,                                      ! Month
  WinterDesignDay,                        ! Day Type
  0,                                      ! Daylight Saving Time Indicator
  Wetbulb,                                ! Humidity Indicating Type
  ,                                       ! Humidity Indicating Day Schedule Name
  DefaultMultipliers,                     ! Dry-Bulb Temperature Range Modifier Type
  ,                                       ! Dry-Bulb Temperature Range Modifier Schedule Name
  ASHRAEClearSky;                         ! Solar Model Indicator

OS:ComponentData,
  {0db13f6d-2ef0-476a-9fd0-dc2cb3e41c65}, ! Handle
  Component Data 1,                       ! Name
  {bcb27779-de23-434e-a0c4-6ef9abd2967a}, ! UUID
  {894e4a03-fa7f-489c-9c89-996426d71e09}, ! Version UUID
  1366306911,                             ! Creation Timestamp
  1366306911,                             ! Version Timestamp
  {70645ca6-ad59-412c-9cd4-bfd642667531}; ! Name of Object 1

