
OS:Version,
  {905c0e72-4bc6-47e0-9c9a-04a506380ddb}, ! Handle
  0.9.3;                                  ! Version Identifier

OS:SizingPeriod:DesignDay,
  {90c531bf-68d7-4fc9-8142-730ce5e2b5e5}, ! Handle
  Wichita Falls Municipal Arpt Ann Clg 1% Condns Enth=>MDB, ! Name
  32.8,                                   ! Maximum Dry-Bulb Temperature {C}
  13,                                     ! Daily Dry-Bulb Temperature Range {deltaC}
  76800,                                  ! Humidity Indicating Conditions at Maximum Dry-Bulb {BasedOnField A3}
  97609,                                  ! Barometric Pressure {Pa}
  5.5,                                    ! Wind Speed {m/s}
  180,                                    ! Wind Direction {deg}
  0,                                      ! Sky Clearness
  0,                                      ! Rain Indicator
  0,                                      ! Snow Indicator
  21,                                     ! Day of Month
  7,                                      ! Month
  SummerDesignDay,                        ! Day Type
  0,                                      ! Daylight Saving Time Indicator
  Enthalpy,                               ! Humidity Indicating Type
  ,                                       ! Humidity Indicating Day Schedule Name
  DefaultMultipliers,                     ! Dry-Bulb Temperature Range Modifier Type
  ,                                       ! Dry-Bulb Temperature Range Modifier Schedule Name
  ASHRAETau,                              ! Solar Model Indicator
  ,                                       ! Beam Solar Day Schedule Name
  ,                                       ! Diffuse Solar Day Schedule Name
  0.44,                                   ! ASHRAE Taub {dimensionless}
  2.15;                                   ! ASHRAE Taud {dimensionless}

OS:ComponentData,
  {0313e20e-c629-4a4b-ac5d-d90fab9b35c2}, ! Handle
  Component Data 1,                       ! Name
  {dabc2600-c2ea-485e-a0f0-355647f3cc62}, ! UUID
  {facebc4d-e7ca-46b3-9100-8ee60d9637a9}, ! Version UUID
  1366310937,                             ! Creation Timestamp
  1366310937,                             ! Version Timestamp
  {90c531bf-68d7-4fc9-8142-730ce5e2b5e5}; ! Name of Object 1

