
OS:Version,
  {baa54156-dab6-4e2b-9171-c735e7ca8989}, ! Handle
  0.9.3;                                  ! Version Identifier

OS:SizingPeriod:DesignDay,
  {e51e143e-3a16-459f-93d6-29d49032ca9d}, ! Handle
  St Clair County Int Ann Hum_n 99% Condns DP=>MCDB, ! Name
  -13.1,                                  ! Maximum Dry-Bulb Temperature {C}
  0,                                      ! Daily Dry-Bulb Temperature Range {deltaC}
  -18.9,                                  ! Humidity Indicating Conditions at Maximum Dry-Bulb {BasedOnField A3}
  98969,                                  ! Barometric Pressure {Pa}
  1.8,                                    ! Wind Speed {m/s}
  290,                                    ! Wind Direction {deg}
  0,                                      ! Sky Clearness
  0,                                      ! Rain Indicator
  0,                                      ! Snow Indicator
  21,                                     ! Day of Month
  1,                                      ! Month
  WinterDesignDay,                        ! Day Type
  0,                                      ! Daylight Saving Time Indicator
  Dewpoint,                               ! Humidity Indicating Type
  ,                                       ! Humidity Indicating Day Schedule Name
  DefaultMultipliers,                     ! Dry-Bulb Temperature Range Modifier Type
  ,                                       ! Dry-Bulb Temperature Range Modifier Schedule Name
  ASHRAEClearSky;                         ! Solar Model Indicator

OS:ComponentData,
  {81e06541-2796-414f-bb99-26a9f7911593}, ! Handle
  Component Data 1,                       ! Name
  {642c080c-0dab-483d-ac68-5c21faa1d790}, ! UUID
  {155656b4-6722-479d-9e96-924376b68750}, ! Version UUID
  1366308116,                             ! Creation Timestamp
  1366308116,                             ! Version Timestamp
  {e51e143e-3a16-459f-93d6-29d49032ca9d}; ! Name of Object 1

