
OS:Version,
  {ff568999-4b1d-4823-89de-30a4fdf777a2}, ! Handle
  0.9.3;                                  ! Version Identifier

OS:SizingPeriod:DesignDay,
  {203b783e-47dd-4007-ab60-c7fd9373f0d1}, ! Handle
  SCOTTSBLUFF Ann Hum_n 99% Condns DP=>MCDB, ! Name
  -17.8,                                  ! Maximum Dry-Bulb Temperature {C}
  0,                                      ! Daily Dry-Bulb Temperature Range {deltaC}
  -22.7,                                  ! Humidity Indicating Conditions at Maximum Dry-Bulb {BasedOnField A3}
  87651,                                  ! Barometric Pressure {Pa}
  3.3,                                    ! Wind Speed {m/s}
  300,                                    ! Wind Direction {deg}
  0,                                      ! Sky Clearness
  0,                                      ! Rain Indicator
  0,                                      ! Snow Indicator
  21,                                     ! Day of Month
  12,                                     ! Month
  WinterDesignDay,                        ! Day Type
  0,                                      ! Daylight Saving Time Indicator
  Dewpoint,                               ! Humidity Indicating Type
  ,                                       ! Humidity Indicating Day Schedule Name
  DefaultMultipliers,                     ! Dry-Bulb Temperature Range Modifier Type
  ,                                       ! Dry-Bulb Temperature Range Modifier Schedule Name
  ASHRAEClearSky;                         ! Solar Model Indicator

OS:ComponentData,
  {a120c23a-9f16-4884-8226-038650ea2016}, ! Handle
  Component Data 1,                       ! Name
  {2b0d3d63-2687-4df6-b3d2-2bc6cd4e6c35}, ! UUID
  {4cf51b4d-e0d8-41cb-8a83-f1114ef98db0}, ! Version UUID
  1366309198,                             ! Creation Timestamp
  1366309198,                             ! Version Timestamp
  {203b783e-47dd-4007-ab60-c7fd9373f0d1}; ! Name of Object 1

