
OS:Version,
  {eba36b97-7e08-45a3-9f66-47bdb9913cf5}, ! Handle
  0.9.3;                                  ! Version Identifier

OS:SizingPeriod:DesignDay,
  {7ddf89aa-4c6a-4753-8496-bf30619ae40e}, ! Handle
  Nashville Ann Clg 2% Condns Enth=>MDB,  ! Name
  30.1,                                   ! Maximum Dry-Bulb Temperature {C}
  10.2,                                   ! Daily Dry-Bulb Temperature Range {deltaC}
  74800,                                  ! Humidity Indicating Conditions at Maximum Dry-Bulb {BasedOnField A3}
  99181,                                  ! Barometric Pressure {Pa}
  3.5,                                    ! Wind Speed {m/s}
  230,                                    ! Wind Direction {deg}
  0,                                      ! Sky Clearness
  0,                                      ! Rain Indicator
  0,                                      ! Snow Indicator
  21,                                     ! Day of Month
  7,                                      ! Month
  SummerDesignDay,                        ! Day Type
  0,                                      ! Daylight Saving Time Indicator
  Enthalpy,                               ! Humidity Indicating Type
  ,                                       ! Humidity Indicating Day Schedule Name
  DefaultMultipliers,                     ! Dry-Bulb Temperature Range Modifier Type
  ,                                       ! Dry-Bulb Temperature Range Modifier Schedule Name
  ASHRAETau,                              ! Solar Model Indicator
  ,                                       ! Beam Solar Day Schedule Name
  ,                                       ! Diffuse Solar Day Schedule Name
  0.524,                                  ! ASHRAE Taub {dimensionless}
  1.855;                                  ! ASHRAE Taud {dimensionless}

OS:ComponentData,
  {10bc9dce-57ed-4329-b67f-b56da695b108}, ! Handle
  Component Data 1,                       ! Name
  {6121a418-9857-4e73-8d0e-0f6a0e199b75}, ! UUID
  {757013e6-ec40-430f-856f-efecf793f723}, ! Version UUID
  1366310540,                             ! Creation Timestamp
  1366310540,                             ! Version Timestamp
  {7ddf89aa-4c6a-4753-8496-bf30619ae40e}; ! Name of Object 1

