
OS:Version,
  {263da793-8b8e-44aa-a691-d71012fdbb2f}, ! Handle
  0.9.3;                                  ! Version Identifier

OS:SizingPeriod:DesignDay,
  {462cf2b4-c622-42a1-b931-4d3bac301153}, ! Handle
  North Platte Regional Ap Ann Hum_n 99.6% Condns DP=>MCDB, ! Name
  -21.5,                                  ! Maximum Dry-Bulb Temperature {C}
  0,                                      ! Daily Dry-Bulb Temperature Range {deltaC}
  -26.2,                                  ! Humidity Indicating Conditions at Maximum Dry-Bulb {BasedOnField A3}
  91555,                                  ! Barometric Pressure {Pa}
  3.6,                                    ! Wind Speed {m/s}
  320,                                    ! Wind Direction {deg}
  0,                                      ! Sky Clearness
  0,                                      ! Rain Indicator
  0,                                      ! Snow Indicator
  21,                                     ! Day of Month
  1,                                      ! Month
  WinterDesignDay,                        ! Day Type
  0,                                      ! Daylight Saving Time Indicator
  Dewpoint,                               ! Humidity Indicating Type
  ,                                       ! Humidity Indicating Day Schedule Name
  DefaultMultipliers,                     ! Dry-Bulb Temperature Range Modifier Type
  ,                                       ! Dry-Bulb Temperature Range Modifier Schedule Name
  ASHRAEClearSky;                         ! Solar Model Indicator

OS:ComponentData,
  {053ca307-f22c-432c-aee2-0e3877ae358f}, ! Handle
  Component Data 1,                       ! Name
  {becbc7ac-7a54-4721-b69d-cdee9a6f751a}, ! UUID
  {239e50c3-fabc-4c90-9179-f64a2c0293ec}, ! Version UUID
  1366309165,                             ! Creation Timestamp
  1366309165,                             ! Version Timestamp
  {462cf2b4-c622-42a1-b931-4d3bac301153}; ! Name of Object 1

