
OS:Version,
  {150c4d3d-9466-4dc7-9454-4a24b4ee316e}, ! Handle
  0.9.3;                                  ! Version Identifier

OS:SizingPeriod:DesignDay,
  {6279d1a2-9d76-4bb7-8590-78bed943d605}, ! Handle
  Milwaukee Mitchell Intl Ap Ann Htg 99% Condns DB, ! Name
  -16.8,                                  ! Maximum Dry-Bulb Temperature {C}
  0,                                      ! Daily Dry-Bulb Temperature Range {deltaC}
  -16.8,                                  ! Humidity Indicating Conditions at Maximum Dry-Bulb {BasedOnField A3}
  98886,                                  ! Barometric Pressure {Pa}
  5.7,                                    ! Wind Speed {m/s}
  300,                                    ! Wind Direction {deg}
  0,                                      ! Sky Clearness
  0,                                      ! Rain Indicator
  0,                                      ! Snow Indicator
  21,                                     ! Day of Month
  1,                                      ! Month
  WinterDesignDay,                        ! Day Type
  0,                                      ! Daylight Saving Time Indicator
  Wetbulb,                                ! Humidity Indicating Type
  ,                                       ! Humidity Indicating Day Schedule Name
  DefaultMultipliers,                     ! Dry-Bulb Temperature Range Modifier Type
  ,                                       ! Dry-Bulb Temperature Range Modifier Schedule Name
  ASHRAEClearSky;                         ! Solar Model Indicator

OS:ComponentData,
  {b24fb31b-a10b-4781-99e6-fbf6712e4201}, ! Handle
  Component Data 1,                       ! Name
  {908ff9f8-8db2-4de2-ab03-cfce8b89e645}, ! UUID
  {fbe8a80f-a704-4be0-896d-ac552714f604}, ! Version UUID
  1366311556,                             ! Creation Timestamp
  1366311556,                             ! Version Timestamp
  {6279d1a2-9d76-4bb7-8590-78bed943d605}; ! Name of Object 1

