
OS:Version,
  {e432b52b-b731-445a-a1ed-96a10245621d}, ! Handle
  0.9.3;                                  ! Version Identifier

OS:SizingPeriod:DesignDay,
  {fee01018-5eb7-4083-814d-5e9f76945d34}, ! Handle
  Patuxent River Nas Ann Htg 99.6% Condns DB, ! Name
  -8.3,                                   ! Maximum Dry-Bulb Temperature {C}
  0,                                      ! Daily Dry-Bulb Temperature Range {deltaC}
  -8.3,                                   ! Humidity Indicating Conditions at Maximum Dry-Bulb {BasedOnField A3}
  101157,                                 ! Barometric Pressure {Pa}
  4,                                      ! Wind Speed {m/s}
  350,                                    ! Wind Direction {deg}
  0,                                      ! Sky Clearness
  0,                                      ! Rain Indicator
  0,                                      ! Snow Indicator
  21,                                     ! Day of Month
  1,                                      ! Month
  WinterDesignDay,                        ! Day Type
  0,                                      ! Daylight Saving Time Indicator
  Wetbulb,                                ! Humidity Indicating Type
  ,                                       ! Humidity Indicating Day Schedule Name
  DefaultMultipliers,                     ! Dry-Bulb Temperature Range Modifier Type
  ,                                       ! Dry-Bulb Temperature Range Modifier Schedule Name
  ASHRAEClearSky;                         ! Solar Model Indicator

OS:ComponentData,
  {62842f69-31dc-4f6b-91c7-25db4f3f6420}, ! Handle
  Component Data 1,                       ! Name
  {31e0fb59-a0cf-4602-8ff1-a41ecafc5d53}, ! UUID
  {1196abbd-ad32-470e-91b5-c5c062dd8534}, ! Version UUID
  1366307856,                             ! Creation Timestamp
  1366307856,                             ! Version Timestamp
  {fee01018-5eb7-4083-814d-5e9f76945d34}; ! Name of Object 1

