
OS:Version,
  {1296e10d-4c1e-467c-bb04-869c78436c28}, ! Handle
  0.9.3;                                  ! Version Identifier

OS:SizingPeriod:DesignDay,
  {2a674bb0-0c89-4b80-8b01-1cc6a715e62a}, ! Handle
  Seattle Boeing Field  Isis Ann Clg 1% Condns DP=>MDB, ! Name
  20.6,                                   ! Maximum Dry-Bulb Temperature {C}
  10.2,                                   ! Daily Dry-Bulb Temperature Range {deltaC}
  15.2,                                   ! Humidity Indicating Conditions at Maximum Dry-Bulb {BasedOnField A3}
  101085,                                 ! Barometric Pressure {Pa}
  4.5,                                    ! Wind Speed {m/s}
  320,                                    ! Wind Direction {deg}
  0,                                      ! Sky Clearness
  0,                                      ! Rain Indicator
  0,                                      ! Snow Indicator
  21,                                     ! Day of Month
  8,                                      ! Month
  SummerDesignDay,                        ! Day Type
  0,                                      ! Daylight Saving Time Indicator
  Dewpoint,                               ! Humidity Indicating Type
  ,                                       ! Humidity Indicating Day Schedule Name
  DefaultMultipliers,                     ! Dry-Bulb Temperature Range Modifier Type
  ,                                       ! Dry-Bulb Temperature Range Modifier Schedule Name
  ASHRAETau,                              ! Solar Model Indicator
  ,                                       ! Beam Solar Day Schedule Name
  ,                                       ! Diffuse Solar Day Schedule Name
  0.359,                                  ! ASHRAE Taub {dimensionless}
  2.539;                                  ! ASHRAE Taud {dimensionless}

OS:ComponentData,
  {35d5d1ed-19f0-448f-b3eb-8e74cbe5df24}, ! Handle
  Component Data 1,                       ! Name
  {211c7fea-19aa-4af8-b346-98be11deffa4}, ! UUID
  {2d79d282-d567-4727-b760-6a87e2496eed}, ! Version UUID
  1366311349,                             ! Creation Timestamp
  1366311349,                             ! Version Timestamp
  {2a674bb0-0c89-4b80-8b01-1cc6a715e62a}; ! Name of Object 1

