
OS:Version,
  {27755262-ed07-4b2c-be6f-27da11ff59b7}, ! Handle
  0.9.3;                                  ! Version Identifier

OS:SizingPeriod:DesignDay,
  {74e98b50-40a6-4209-b600-935f2069fbc4}, ! Handle
  Medford Ann Clg 1% Condns DB=>MWB,      ! Name
  35.2,                                   ! Maximum Dry-Bulb Temperature {C}
  17.9,                                   ! Daily Dry-Bulb Temperature Range {deltaC}
  18.8,                                   ! Humidity Indicating Conditions at Maximum Dry-Bulb {BasedOnField A3}
  96553,                                  ! Barometric Pressure {Pa}
  3.9,                                    ! Wind Speed {m/s}
  290,                                    ! Wind Direction {deg}
  0,                                      ! Sky Clearness
  0,                                      ! Rain Indicator
  0,                                      ! Snow Indicator
  21,                                     ! Day of Month
  7,                                      ! Month
  SummerDesignDay,                        ! Day Type
  0,                                      ! Daylight Saving Time Indicator
  Wetbulb,                                ! Humidity Indicating Type
  ,                                       ! Humidity Indicating Day Schedule Name
  DefaultMultipliers,                     ! Dry-Bulb Temperature Range Modifier Type
  ,                                       ! Dry-Bulb Temperature Range Modifier Schedule Name
  ASHRAETau,                              ! Solar Model Indicator
  ,                                       ! Beam Solar Day Schedule Name
  ,                                       ! Diffuse Solar Day Schedule Name
  0.356,                                  ! ASHRAE Taub {dimensionless}
  2.582;                                  ! ASHRAE Taud {dimensionless}

OS:ComponentData,
  {ab68e39a-07e7-449c-b61e-41911406a274}, ! Handle
  Component Data 1,                       ! Name
  {1f15fbab-e0c2-4426-a81e-314a9458d977}, ! UUID
  {88691c77-5099-476b-b2e1-4ad5008602b9}, ! Version UUID
  1366310031,                             ! Creation Timestamp
  1366310031,                             ! Version Timestamp
  {74e98b50-40a6-4209-b600-935f2069fbc4}; ! Name of Object 1

