
OS:Version,
  {b3db11e9-ed8b-435e-9d71-273b845fe546}, ! Handle
  0.9.3;                                  ! Version Identifier

OS:SizingPeriod:DesignDay,
  {42ee7248-6d49-4d59-a93e-014f9fe84163}, ! Handle
  MANSFIELD Ann Clg .4% Condns WB=>MDB,   ! Name
  29.2,                                   ! Maximum Dry-Bulb Temperature {C}
  10.3,                                   ! Daily Dry-Bulb Temperature Range {deltaC}
  24.4,                                   ! Humidity Indicating Conditions at Maximum Dry-Bulb {BasedOnField A3}
  96669,                                  ! Barometric Pressure {Pa}
  4.7,                                    ! Wind Speed {m/s}
  230,                                    ! Wind Direction {deg}
  0,                                      ! Sky Clearness
  0,                                      ! Rain Indicator
  0,                                      ! Snow Indicator
  21,                                     ! Day of Month
  7,                                      ! Month
  SummerDesignDay,                        ! Day Type
  0,                                      ! Daylight Saving Time Indicator
  Wetbulb,                                ! Humidity Indicating Type
  ,                                       ! Humidity Indicating Day Schedule Name
  DefaultMultipliers,                     ! Dry-Bulb Temperature Range Modifier Type
  ,                                       ! Dry-Bulb Temperature Range Modifier Schedule Name
  ASHRAETau,                              ! Solar Model Indicator
  ,                                       ! Beam Solar Day Schedule Name
  ,                                       ! Diffuse Solar Day Schedule Name
  0.456,                                  ! ASHRAE Taub {dimensionless}
  2.029;                                  ! ASHRAE Taud {dimensionless}

OS:ComponentData,
  {ca82c3be-2c7c-4256-932e-2d6797af569f}, ! Handle
  Component Data 1,                       ! Name
  {8cc3468e-bbe9-408c-8c5d-97b0e98a23e6}, ! UUID
  {c7bc2d40-5fc3-4b11-86f9-3b574ec0fb9b}, ! Version UUID
  1366309836,                             ! Creation Timestamp
  1366309836,                             ! Version Timestamp
  {42ee7248-6d49-4d59-a93e-014f9fe84163}; ! Name of Object 1

